
[EMITTERS]
J-103 0.400000078689574 
J-142 2.30000047937383 
J-189 1.10000020742673 
J-235 1.80000030028552 
J-271 3.90000065061863 
J-361 2.70000045042828 
J-465 0.100000019672393 
J-595 1.10000020742673 
J-634 1.50000025023793 
J-693 2.20000041485347 
J-733 0.90000015014276 
J-925 0.100000019672393 

[PIPES]
shapefile_limpiado-69 J-3 J-4 0.156010628372909 100 0.001524 0 
shapefile_limpiado-449 J-58 J-59 0.927393982244309 62 1.524 0 
shapefile_limpiado-455 J-97 J-98 1.53827669879064 100 0.26 0 
shapefile_limpiado-16 J-99 J-100 2.55831276487144 150 0.001524 0 
shapefile_limpiado-63 J-108 J-109 3.20996487605693 75 0.001524 0 
shapefile_limpiado-385 J-110 J-111 1.76904545495672 75 0.001524 0 
shapefile_limpiado-94 J-117 J-118 1.93106821124616 100 0.001524 0 
shapefile_limpiado-133 J-159 J-160 2.70038485722804 75 0.001524 0 
shapefile_limpiado-100 J-163 J-164 2.96006869920509 75 0.001524 0 
shapefile_limpiado-3 J-169 J-170 3.21890627810291 100 0.001524 0 
shapefile_limpiado-791 J-176 J-177 3.40913638328417 100 0.001524 0 
shapefile_limpiado-121 J-184 J-185 3.72668979891398 100 0.001524 0 
shapefile_limpiado-365 J-189 J-190 3.8314919808652 75 0.001524 0 
shapefile_limpiado-831 J-193 J-194 3.9095024848049 37 0.001524 0 
shapefile_limpiado-66 J-195 J-196 3.92476004720437 75 0.001524 0 
shapefile_limpiado-15 J-100 J-197 3.92874222387043 150 0.001524 0 
shapefile_limpiado-787 J-200 J-201 4.06300129648113 100 0.001524 0 
shapefile_limpiado-824 J-206 J-207 4.22496450297844 37 0.001524 0 
shapefile_limpiado-138 J-208 J-209 6.53543831645314 100 0.001524 0 
shapefile_limpiado-87 J-117 J-210 4.32661622635128 100 0.001524 0 
shapefile_limpiado-4 J-218 J-219 4.54447210268779 50 0.001524 0 
shapefile_limpiado-112 J-164 J-221 4.65459325306113 75 0.001524 0 
shapefile_limpiado-122 J-222 J-223 4.70069678308627 100 0.001524 0 
shapefile_limpiado-830 J-224 J-225 4.70724097360838 100 0.001524 0 
shapefile_limpiado-320 J-226 J-227 4.76146285645127 50 1.524 0 
shapefile_limpiado-321 J-228 J-229 4.76163575222146 50 1.524 0 
shapefile_limpiado-109 J-230 J-231 4.82431448651658 75 0.001524 0 
shapefile_limpiado-82 J-232 J-233 4.86700024837961 100 0.001524 0 
shapefile_limpiado-383 J-235 J-236 4.96614320027605 75 0.001524 0 
shapefile_limpiado-21 J-238 J-239 4.97293496641786 150 0.001524 0 
shapefile_limpiado-827 J-245 J-246 5.05718271098692 37 0.001524 0 
shapefile_limpiado-150 J-249 J-250 5.100210811212 75 0.001524 0 
shapefile_limpiado-330 J-251 J-252 5.1060202378256 50 1.524 0 
shapefile_limpiado-319 J-226 J-255 5.12746213464939 50 1.524 0 
shapefile_limpiado-132 J-256 J-257 5.1695716497207 150 0.001524 0 
shapefile_limpiado-454 J-259 J-97 5.22556220500985 100 0.26 0 
shapefile_limpiado-70 J-103 J-262 5.2848417522407 100 0.001524 0 
shapefile_limpiado-145 J-265 J-266 5.32752570691726 100 0.001524 0 
shapefile_limpiado-71 J-237 J-267 5.39426201458952 150 0.001524 0 
shapefile_limpiado-364 J-271 J-189 5.67392974330178 100 0.001524 0 
shapefile_limpiado-123 J-278 J-279 6.38217732521876 100 0.001524 0 
shapefile_limpiado-91 J-210 J-285 6.14339102097902 100 0.001524 0 
shapefile_limpiado-765 J-286 J-287 6.09999237034334 75 0.001524 0 
shapefile_limpiado-162 J-291 J-292 6.13820204075749 75 0.001524 0 
shapefile_limpiado-362 J-293 J-294 6.22245186194679 75 1.524 0 
shapefile_limpiado-312 J-302 J-303 6.66968639099614 62 1.524 0 
shapefile_limpiado-163 J-292 J-304 6.70573171540547 75 0.001524 0 
shapefile_limpiado-407 J-313 J-314 7.02892568002203 100 0.001524 0 
shapefile_limpiado-363 J-294 J-189 7.11477148156485 75 1.524 0 
shapefile_limpiado-35 J-315 J-316 7.14927612427514 150 0.001524 0 
shapefile_limpiado-324 J-321 J-229 7.36833131712115 50 1.524 0 
shapefile_limpiado-18 J-324 J-325 7.67103192110339 150 0.001524 0 
shapefile_limpiado-120 J-328 J-329 7.79805655129767 75 0.001524 0 
shapefile_limpiado-54 J-330 J-331 7.92190013466632 75 0.001524 0 
shapefile_limpiado-814 J-334 J-335 8.1179909537945 150 0.001524 0 
shapefile_limpiado-43 J-342 J-343 8.53511796439678 100 0.001524 0 
shapefile_limpiado-80 J-348 J-282 8.70137867090982 100 0.001524 0 
shapefile_limpiado-75 J-351 J-352 8.75038831897779 100 0.001524 0 
shapefile_limpiado-456 J-98 J-357 8.78647015212991 100 0.26 0 
shapefile_limpiado-360 J-360 J-361 8.80963403264622 75 1.524 0 
shapefile_limpiado-779 J-362 J-363 8.83739772866577 100 0.001524 0 
shapefile_limpiado-393 J-364 J-365 8.92763490111728 75 0.001524 0 
shapefile_limpiado-1 J-369 J-303 9.00620541109501 50 1.524 0 
shapefile_limpiado-32 J-374 J-375 9.16525955126486 50 0.001524 0 
shapefile_limpiado-140 J-376 J-377 9.16809563317868 100 0.001524 0 
shapefile_limpiado-23 J-378 J-379 9.30356813040325 150 0.001524 0 
shapefile_limpiado-99 J-380 J-163 9.30885373364559 75 0.001524 0 
shapefile_limpiado-322 J-381 J-126 9.34177281963504 50 1.524 0 
shapefile_limpiado-142 J-382 J-383 9.41598468349052 100 0.001524 0 
shapefile_limpiado-37 J-387 J-388 9.5327415310265 50 0.001524 0 
shapefile_limpiado-782 J-394 J-362 9.91173947927231 100 0.001524 0 
shapefile_limpiado-25 J-396 J-397 9.94363456639343 150 0.001524 0 
shapefile_limpiado-117 J-398 J-399 9.94712527552745 100 0.001524 0 
shapefile_limpiado-165 J-400 J-401 9.9548379462716 75 0.001524 0 
shapefile_limpiado-826 J-405 J-193 10.4321952913114 37 0.001524 0 
shapefile_limpiado-17 J-197 J-324 11.2196876635266 150 0.001524 0 
shapefile_limpiado-415 J-417 J-418 11.4954262651273 75 0.001524 0 
shapefile_limpiado-76 J-419 J-420 11.6183763778056 100 0.001524 0 
shapefile_limpiado-801 J-421 J-422 11.935530960538 100 0.001524 0 
shapefile_limpiado-11 J-423 J-424 11.6630209720929 100 0.001524 0 
shapefile_limpiado-316 J-429 J-430 12.0350699454726 50 1.524 0 
shapefile_limpiado-24 J-379 J-396 12.19013260717 150 0.001524 0 
shapefile_limpiado-156 J-434 J-435 12.3945673496274 100 0.001524 0 
shapefile_limpiado-49 J-442 J-443 12.8016838073807 100 0.001524 0 
shapefile_limpiado-7 J-444 J-445 12.8567078034396 100 0.001524 0 
shapefile_limpiado-394 J-365 J-450 13.0541302220445 75 0.001524 0 
shapefile_limpiado-88 J-285 J-456 13.4621992138009 100 0.001524 0 
shapefile_limpiado-144 J-457 J-265 13.5013838954776 100 0.001524 0 
shapefile_limpiado-353 J-458 J-271 13.6937762635108 100 0.001524 0 
shapefile_limpiado-366 J-462 J-463 13.8842274186467 100 0.001524 0 
shapefile_limpiado-38 J-388 J-464 13.9236476964284 50 0.001524 0 
shapefile_limpiado-48 J-465 J-442 14.0712155427643 100 0.001524 0 
shapefile_limpiado-19 J-325 J-186 14.0843490354681 150 0.001524 0 
shapefile_limpiado-361 J-361 J-293 14.2009267502327 75 1.524 0 
shapefile_limpiado-359 J-470 J-271 14.392460138255 100 0.001524 0 
shapefile_limpiado-390 J-475 J-476 14.6807473312782 75 0.001524 0 
shapefile_limpiado-402 J-477 J-478 14.8789016257374 100 0.001524 0 
shapefile_limpiado-119 J-169 J-479 14.97495390362 100 0.001524 0 
shapefile_limpiado-14 J-444 J-99 15.0170410233425 150 0.001524 0 
shapefile_limpiado-804 J-486 J-487 15.6022165267436 75 0.001524 0 
shapefile_limpiado-153 J-488 J-489 15.7351371516786 100 0.001524 0 
shapefile_limpiado-355 J-491 J-492 15.8492551790675 75 0.001524 0 
shapefile_limpiado-370 J-502 J-503 16.3276558799759 100 0.001524 0 
shapefile_limpiado-55 J-398 J-108 16.6086815371036 100 0.001524 0 
shapefile_limpiado-105 J-512 J-230 17.1161578057494 75 0.001524 0 
shapefile_limpiado-823 J-245 J-515 17.278574156718 37 0.001524 0 
shapefile_limpiado-825 J-207 J-405 17.296037946887 37 0.001524 0 
shapefile_limpiado-42 J-518 J-519 19.0528935093004 100 0.001524 0 
shapefile_limpiado-356 J-520 J-521 17.5296383271207 100 0.001524 0 
shapefile_limpiado-431 J-522 J-523 17.5778240035551 75 0.001524 0 
shapefile_limpiado-815 J-531 J-532 18.5064645655773 150 0.001524 0 
shapefile_limpiado-817 J-335 J-531 19.001594496574 150 0.001524 0 
shapefile_limpiado-777 J-541 J-542 19.0806719084708 75 0.001524 0 
shapefile_limpiado-792 J-177 J-545 19.2112391369215 100 0.001524 0 
shapefile_limpiado-107 J-461 J-554 19.7557005117895 100 0.001524 0 
shapefile_limpiado-41 J-555 J-342 20.091691258541 100 0.001524 0 
shapefile_limpiado-102 J-554 J-564 20.5136568838403 100 0.001524 0 
shapefile_limpiado-789 J-573 J-574 21.4167072746909 100 0.001524 0 
shapefile_limpiado-315 J-251 J-429 21.4480880152327 50 1.524 0 
shapefile_limpiado-404 J-585 J-586 22.4584061035377 100 0.001524 0 
shapefile_limpiado-47 J-587 J-465 22.5492159267517 100 0.001524 0 
shapefile_limpiado-776 J-588 J-541 22.6280577692176 75 0.001524 0 
shapefile_limpiado-294 J-592 J-593 23.0880502227551 100 0.001524 0 
shapefile_limpiado-367 J-594 J-595 23.1164994029066 100 0.001524 0 
shapefile_limpiado-786 J-598 J-200 23.2198052484522 100 0.001524 0 
shapefile_limpiado-780 J-363 J-546 23.2260728621525 100 0.001524 0 
shapefile_limpiado-92 J-600 J-601 23.8485530166717 75 0.001524 0 
shapefile_limpiado-113 J-221 J-602 24.4019485347413 75 0.001524 0 
shapefile_limpiado-800 J-422 J-603 24.4709764224139 100 0.001524 0 
shapefile_limpiado-439 J-608 J-609 24.9012352826878 62 1.524 0 
shapefile_limpiado-343 J-610 J-611 25.0674430065126 100 0.001524 0 
shapefile_limpiado-374 J-612 J-613 25.1539620834284 100 0.001524 0 
shapefile_limpiado-764 J-616 J-286 25.2956744880164 75 0.001524 0 
shapefile_limpiado-151 J-621 J-434 25.9437864468188 100 0.001524 0 
shapefile_limpiado-382 J-622 J-110 26.058452766343 75 0.001524 0 
shapefile_limpiado-135 J-623 J-624 26.063105238081 150 0.001524 0 
shapefile_limpiado-314 J-627 J-628 26.6361302244067 250 0.26 0 
shapefile_limpiado-51 J-631 J-632 26.7593354351583 100 0.001524 0 
shapefile_limpiado-446 J-644 J-645 28.0437325259677 25 1.524 0 
shapefile_limpiado-354 J-190 J-491 28.5880228156697 75 0.001524 0 
shapefile_limpiado-816 J-334 J-654 28.876144164617 150 0.001524 0 
shapefile_limpiado-443 J-657 J-658 29.2070279140722 50 1.524 0 
shapefile_limpiado-369 J-662 J-663 29.4170969779833 75 0.001524 0 
shapefile_limpiado-114 J-602 J-667 29.8629304578962 75 0.001524 0 
shapefile_limpiado-125 J-223 J-671 30.2653401665632 100 0.001524 0 
shapefile_limpiado-771 J-670 J-676 31.2642590953152 100 0.001524 0 
shapefile_limpiado-775 J-677 J-678 31.3212001720237 100 0.001524 0 
shapefile_limpiado-391 J-476 J-683 31.9483978787754 75 0.001524 0 
shapefile_limpiado-67 J-685 J-278 32.0192822470339 100 0.001524 0 
shapefile_limpiado-422 J-696 J-697 33.9100847923017 75 0.001524 0 
shapefile_limpiado-12 J-424 J-355 34.0726188193581 100 0.001524 0 
shapefile_limpiado-433 J-700 J-701 34.1274308546799 75 0.001524 0 
shapefile_limpiado-111 J-702 J-380 34.2738984949675 75 0.001524 0 
shapefile_limpiado-13 J-343 J-703 34.3456422247859 100 0.001524 0 
shapefile_limpiado-822 J-704 J-705 34.3615023435027 25 0.001524 0 
shapefile_limpiado-435 J-706 J-707 34.4966548109651 75 0.001524 0 
shapefile_limpiado-426 J-708 J-709 34.5124819852701 50 0.001524 0 
shapefile_limpiado-414 J-583 J-417 34.635779934825 100 0.001524 0 
shapefile_limpiado-377 J-566 J-713 34.855593370034 100 0.001524 0 
shapefile_limpiado-160 J-720 J-721 35.4245241533038 150 0.001524 0 
shapefile_limpiado-26 J-397 J-722 35.4355779552996 150 0.001524 0 
shapefile_limpiado-338 J-723 J-724 35.8902390887246 100 0.001524 0 
shapefile_limpiado-419 J-730 J-731 36.3614607075493 100 0.001524 0 
shapefile_limpiado-429 J-734 J-735 36.5584811159182 100 0.001524 0 
shapefile_limpiado-39 J-519 J-423 36.9731422080673 100 0.001524 0 
shapefile_limpiado-127 J-749 J-204 38.3048110465311 100 0.001524 0 
shapefile_limpiado-805 J-487 J-752 38.6559505589442 75 0.001524 0 
shapefile_limpiado-104 J-517 J-754 38.9777178364202 75 0.001524 0 
shapefile_limpiado-93 J-758 J-759 39.2760430495791 75 0.001524 0 
shapefile_limpiado-828 J-770 J-771 39.7442969205994 50 0.001524 0 
shapefile_limpiado-380 J-733 J-651 40.1582840802123 100 0.001524 0 
shapefile_limpiado-410 J-776 J-777 40.5700096771178 100 0.001524 0 
shapefile_limpiado-40 J-342 J-518 41.7845531713322 100 0.001524 0 
shapefile_limpiado-34 J-219 J-788 41.9072203518218 50 0.001524 0 
shapefile_limpiado-59 J-403 J-790 42.0525303903855 50 0.001524 0 
shapefile_limpiado-803 J-793 J-486 42.2762260643862 75 0.001524 0 
shapefile_limpiado-409 J-796 J-776 42.5560162360643 100 0.001524 0 
shapefile_limpiado-372 J-803 J-804 43.2008274790044 100 0.001524 0 
shapefile_limpiado-396 J-805 J-806 43.2509570022372 200 0.26 0 
shapefile_limpiado-110 J-754 J-702 44.0194791134604 75 0.001524 0 
shapefile_limpiado-164 J-304 J-400 44.5661300966628 75 0.001524 0 
shapefile_limpiado-139 J-209 J-382 45.1190251902114 100 0.001524 0 
shapefile_limpiado-143 J-383 J-457 45.1663935003265 100 0.001524 0 
shapefile_limpiado-152 J-822 J-823 45.7729257823969 75 0.001524 0 
shapefile_limpiado-118 J-825 J-826 46.2652019246519 75 0.001524 0 
shapefile_limpiado-378 J-713 J-732 46.7348611175008 100 0.001524 0 
shapefile_limpiado-762 J-830 J-831 47.0573444931476 100 0.001524 0 
shapefile_limpiado-447 J-645 J-833 47.4330717640682 19 1.524 0 
shapefile_limpiado-131 J-205 J-208 47.494782370963 100 0.001524 0 
shapefile_limpiado-358 J-836 J-837 47.7417161206633 75 0.001524 0 
shapefile_limpiado-81 J-838 J-839 47.905446632434 100 0.001524 0 
shapefile_limpiado-128 J-842 J-159 48.0039370616672 75 0.001524 0 
shapefile_limpiado-808 J-843 J-844 48.140780017699 75 0.001524 0 
shapefile_limpiado-809 J-846 J-201 48.5377314929756 75 0.001524 0 
shapefile_limpiado-97 J-847 J-848 48.6390722361885 75 0.001524 0 
shapefile_limpiado-788 J-598 J-856 49.2764135510279 100 0.001524 0 
shapefile_limpiado-867 J-862 J-444 49.7398497881038 150 0.001524 0 
shapefile_limpiado-819 J-866 J-867 50.1137471098247 100 0.001524 0 
shapefile_limpiado-807 J-868 J-869 50.3569327728008 75 0.001524 0 
shapefile_limpiado-442 J-870 J-657 50.6191700052669 50 1.524 0 
shapefile_limpiado-146 J-266 J-871 50.8349823724263 100 0.001524 0 
shapefile_limpiado-83 J-233 J-872 50.8651653161783 100 0.001524 0 
shapefile_limpiado-416 J-418 J-873 51.2474687732849 75 0.001524 0 
shapefile_limpiado-401 J-874 J-875 51.2711461329792 100 0.001524 0 
shapefile_limpiado-86 J-453 J-118 51.3929940006267 75 0.001524 0 
shapefile_limpiado-368 J-879 J-662 51.9546762053384 75 0.001524 0 
shapefile_limpiado-337 J-894 J-723 54.6328175962277 100 0.001524 0 
shapefile_limpiado-769 J-813 J-895 55.1168107090934 100 0.001524 0 
shapefile_limpiado-95 J-456 J-898 55.2575458360595 100 0.001524 0 
shapefile_limpiado-161 J-291 J-904 55.674535098953 75 0.001524 0 
shapefile_limpiado-148 J-913 J-914 56.6507042246422 100 0.001524 0 
shapefile_limpiado-408 J-314 J-796 58.1404114982719 100 0.001524 0 
shapefile_limpiado-778 J-542 J-923 59.2395878468835 75 0.001524 0 
shapefile_limpiado-89 J-872 J-925 59.8477060315917 100 0.001524 0 
shapefile_limpiado-774 J-547 J-677 60.0206037844559 100 0.001524 0 
shapefile_limpiado-307 J-933 J-934 61.0446606494377 75 0.001524 0 
shapefile_limpiado-371 J-503 J-890 61.1414161622645 100 0.001524 0 
shapefile_limpiado-794 J-937 J-866 61.2785298560773 100 0.001524 0 
shapefile_limpiado-813 J-551 J-562 61.8997053415448 100 0.001524 0 
shapefile_limpiado-106 J-942 J-517 62.1590259220105 100 0.001524 0 
shapefile_limpiado-348 J-943 J-944 62.8404509965601 100 0.001524 0 
shapefile_limpiado-761 J-945 J-830 63.0512695647759 100 0.001524 0 
shapefile_limpiado-811 J-947 J-948 63.4643890626389 75 0.001524 0 
shapefile_limpiado-389 J-949 J-805 64.0474264639589 200 0.26 0 
shapefile_limpiado-785 J-856 J-951 64.2155114326883 100 0.001524 0 
shapefile_limpiado-341 J-673 J-954 64.2380146746117 100 0.001524 0 
shapefile_limpiado-392 J-683 J-364 64.448259198328 75 0.001524 0 
shapefile_limpiado-810 J-962 J-963 65.5838605731282 75 0.001524 0 
shapefile_limpiado-65 J-331 J-195 66.407029261422 75 0.001524 0 
shapefile_limpiado-154 J-904 J-488 66.5155763187077 100 0.001524 0 
shapefile_limpiado-72 J-267 J-907 67.235228682229 150 0.001524 0 
shapefile_limpiado-50 J-587 J-631 67.6345942916418 100 0.001524 0 
shapefile_limpiado-432 J-977 J-978 68.2498249226523 75 0.001524 0 
shapefile_limpiado-84 J-979 J-452 68.3815771693874 75 0.001524 0 
shapefile_limpiado-308 J-609 J-736 68.5179057617776 62 1.524 0 
shapefile_limpiado-397 J-806 J-983 69.60553429563 200 0.26 0 
shapefile_limpiado-124 J-185 J-279 69.8652732361773 100 0.001524 0 
shapefile_limpiado-424 J-985 J-986 69.8657278104239 50 0.001524 0 
shapefile_limpiado-68 J-329 J-989 70.4073957300828 75 0.001524 0 
shapefile_limpiado-411 J-777 J-934 71.943532691873 100 0.001524 0 
shapefile_limpiado-436 J-1002 J-1003 72.887481231471 200 0.26 0 
shapefile_limpiado-326 J-429 J-1007 73.0027755739524 25 1.524 0 
shapefile_limpiado-434 J-1010 J-1011 74.0444831125835 75 0.001524 0 
shapefile_limpiado-155 J-1012 J-1013 74.0904400065315 75 0.001524 0 
shapefile_limpiado-423 J-1015 J-1016 74.7764737722827 75 0.001524 0 
shapefile_limpiado-136 J-1025 J-376 76.324743065837 100 0.001524 0 
shapefile_limpiado-783 J-1029 J-856 77.429442943499 100 0.001524 0 
shapefile_limpiado-790 J-574 J-176 78.4312853204956 100 0.001524 0 
shapefile_limpiado-349 J-944 J-502 79.7371769899017 100 0.001524 0 
shapefile_limpiado-327 J-628 J-1055 82.7147665940475 250 0.26 0 
shapefile_limpiado-417 J-873 J-1056 82.9786240665745 75 0.001524 0 
shapefile_limpiado-10 J-891 J-1059 83.7334879415503 100 0.001524 0 
shapefile_limpiado-445 J-950 J-1067 85.8666448762631 50 1.524 0 
shapefile_limpiado-784 J-598 J-1077 87.9155331475474 100 0.001524 0 
shapefile_limpiado-168 J-1085 J-1086 90.0683187923234 75 0.001524 0 
shapefile_limpiado-78 J-1092 J-1093 91.0302597176162 100 0.001524 0 
shapefile_limpiado-357 J-521 J-1104 94.8413883486912 100 0.001524 0 
shapefile_limpiado-352 J-595 J-458 94.8559609696379 100 0.001524 0 
shapefile_limpiado-398 J-1118 J-1119 102.144771230651 75 0.001524 0 
shapefile_limpiado-763 J-287 J-1128 106.303087658005 75 0.001524 0 
shapefile_limpiado-339 J-724 J-672 106.407055655287 100 0.001524 0 
shapefile_limpiado-457 J-983 J-1132 66.6671322923119 200 0.26 0 
shapefile_limpiado-147 J-871 J-913 111.629392705479 100 0.001524 0 
shapefile_limpiado-440 J-1055 J-1141 117.298906174676 250 0.26 0 
shapefile_limpiado-342 J-954 J-610 128.656378460343 100 0.001524 0 
shapefile_limpiado-116 J-898 J-1157 129.888297074424 100 0.001524 0 
shapefile_limpiado-820 J-866 J-1166 137.118103682985 75 0.001524 0 
shapefile_limpiado-328 J-1067 J-252 137.691591015786 50 1.524 0 
shapefile_limpiado-384 J-236 J-475 139.14046590531 75 0.001524 0 
shapefile_limpiado-79 J-838 J-348 142.601394427323 100 0.001524 0 
shapefile_limpiado-36 J-316 J-1152 145.674680075835 150 0.001524 0 
shapefile_limpiado-141 J-1025 J-1183 160.524029577311 100 0.001524 0 
shapefile_limpiado-868 J-862 J-303 165.594964320941 250 0.26 0 
shapefile_limpiado-793 J-1197 J-1198 179.413895114832 75 0.001524 0 
shapefile_limpiado-350 J-463 J-1205 193.284776152882 100 0.001524 0 
shapefile_limpiado-438 J-1081 J-608 218.042619588317 62 1.524 0 
shapefile_limpiado-351 J-1211 J-1212 222.167634982075 100 0.001524 0 
shapefile_limpiado-918 J-1206 J-862 593.104353059483 300 0.26 0 
shapefile_limpiado-917(1) J-1206 J-895 362.981276307837 150 0.001524 0 
shapefile_limpiado-347(1) J-1041 J-492 9.23168875023697 100 0.001524 0 
shapefile_limpiado-347(2) J-492 J-943 69.3812989616205 100 0.001524 0 
shapefile_limpiado-379(1) J-732 J-462 20.5923217962845 100 0.001524 0 
shapefile_limpiado-379(2) J-462 J-733 15.8905974755968 100 0.001524 0 
shapefile_limpiado-400(2) J-477 J-874 93.594133478657 100 0.001524 0 
shapefile_limpiado-317(1) J-430 J-381 13.1717266200149 50 1.524 0 
shapefile_limpiado-317(2) J-381 J-482 54.169828310027 50 1.524 0 
shapefile_limpiado-406(2) J-313 J-849 7.4762832181069 100 0.001524 0 
shapefile_limpiado-44(2) J-401 J-721 37.5438390858929 150 0.001524 0 
shapefile_limpiado-344(1) J-611 J-634 30.2587083834341 100 0.001524 0 
shapefile_limpiado-344(2) J-634 J-693 3.18025343462346 100 0.001524 0 
shapefile_limpiado-103(1) J-564 J-231 9.76178532041982 100 0.001524 0 
shapefile_limpiado-103(2) J-231 J-827 36.7317670515913 100 0.001524 0 
shapefile_limpiado-85(1) J-452 J-601 9.67549504123721 75 0.001524 0 
shapefile_limpiado-85(2) J-601 J-453 3.76627650416478 75 0.001524 0 
shapefile_limpiado-420(1) J-731 J-1015 3.13471718969418 100 0.001524 0 
shapefile_limpiado-386(1) J-668 J-803 55.7047449748756 75 0.001524 0 
shapefile_limpiado-45(1) J-1059 J-1139 23.3138092850382 100 0.001524 0 
shapefile_limpiado-98(1) J-881 J-826 12.4974175553557 100 0.001524 0 
shapefile_limpiado-98(2) J-826 J-516 39.5490235029941 100 0.001524 0 
shapefile_limpiado-441(1) J-1141 J-1003 107.681025694957 250 0.26 0 
shapefile_limpiado-441(2) J-1003 J-1196 68.0949951736126 250 0.26 0 
shapefile_limpiado-829(1) J-224 J-704 25.663996807541 100 0.001524 0 
shapefile_limpiado-821(1) J-246 J-194 4.78900503596692 37 0.001524 0 
shapefile_limpiado-821(2) J-194 J-336 3.33974032712676 37 0.001524 0 
shapefile_limpiado-772(1) J-676 J-678 42.0660622524389 100 0.001524 0 
shapefile_limpiado-772(2) J-678 J-927 18.0437969552295 100 0.001524 0 
shapefile_limpiado-157(1) J-250 J-1012 56.2847313959444 75 0.001524 0 
shapefile_limpiado-157(2) J-1012 J-1068 30.2138077926621 75 0.001524 0 
shapefile_limpiado-770(1) J-669 J-1029 25.0950467551863 100 0.001524 0 
shapefile_limpiado-770(2) J-1029 J-670 4.92312171999576 100 0.001524 0 
shapefile_limpiado-781(1) J-563 J-793 9.25826421056622 100 0.001524 0 
shapefile_limpiado-781(2) J-793 J-394 18.8872951346093 100 0.001524 0 
shapefile_limpiado-773(1) J-546 J-588 14.5910279811706 100 0.001524 0 
shapefile_limpiado-773(2) J-588 J-547 4.66009073434173 100 0.001524 0 
shapefile_limpiado-158(1) J-823 J-435 9.1406930826049 75 0.001524 0 
shapefile_limpiado-158(2) J-435 J-1116 91.1465800720241 75 0.001524 0 
shapefile_limpiado-33(1) J-748 J-218 40.5054610031575 100 0.001524 0 
shapefile_limpiado-33(2) J-218 J-903 15.0518675487562 100 0.001524 0 
shapefile_limpiado-767(1) J-1026 J-1128 14.3329284091443 100 0.001524 0 
shapefile_limpiado-767(2) J-1128 J-812 77.6120880295817 100 0.001524 0 
shapefile_limpiado-90(1) J-925 J-758 42.1148681481493 100 0.001524 0 
shapefile_limpiado-90(2) J-758 J-117 55.3948333684406 100 0.001524 0 
shapefile_limpiado-115(1) J-667 J-1013 69.9895646162634 75 0.001524 0 
shapefile_limpiado-115(2) J-1013 J-512 40.9824441854422 75 0.001524 0 
shapefile_limpiado-46(2) J-587 J-1140 16.1618472289868 100 0.001524 0 
shapefile_limpiado-399(2) J-946 J-1154 38.0495749681036 100 0.001524 0 
shapefile_limpiado-31(1) J-170 J-375 35.4981977438707 100 0.001524 0 
shapefile_limpiado-31(2) J-375 J-748 2.65583220286034 100 0.001524 0 
shapefile_limpiado-403(1) J-478 J-1176 33.0907752991252 100 0.001524 0 
shapefile_limpiado-403(2) J-1176 J-585 1.60253922708107 100 0.001524 0 
shapefile_limpiado-444(1) J-658 J-644 56.5355301727623 50 1.524 0 
shapefile_limpiado-444(2) J-644 J-950 7.55454873164274 50 1.524 0 
shapefile_limpiado-169(1) J-1236 J-1210 2.61132537516137 150 0.001524 0 
shapefile_limpiado-427(1) J-946 J-706 47.781719429146 100 0.001524 0 
shapefile_limpiado-310(1) J-346 J-228 7.50794994423545 62 1.524 0 
shapefile_limpiado-310(2) J-228 J-347 1.12923030862256 62 1.524 0 
shapefile_limpiado-412(1) J-875 J-1177 53.3896733677802 100 0.001524 0 
shapefile_limpiado-412(2) J-1177 J-582 27.5009796428929 100 0.001524 0 
shapefile_limpiado-437(1) J-1080 J-433 72.156901533971 50 1.524 0 
shapefile_limpiado-437(2) J-433 J-1081 17.1960807663039 50 1.524 0 
shapefile_limpiado-345(1) J-693 J-1212 29.8373732606133 100 0.001524 0 
shapefile_limpiado-345(2) J-1212 J-968 36.6755423144305 100 0.001524 0 
shapefile_limpiado-766(1) J-927 J-923 39.5310541438739 100 0.001524 0 
shapefile_limpiado-766(2) J-923 J-1026 37.1533991507148 100 0.001524 0 
shapefile_limpiado-428(1) J-765 J-700 29.0007017844303 100 0.001524 0 
shapefile_limpiado-346(1) J-968 J-1205 35.4122177485923 100 0.001524 0 
shapefile_limpiado-346(2) J-1205 J-1041 57.6611026030882 100 0.001524 0 
shapefile_limpiado-387(2) J-894 J-714 35.5637960655789 200 0.26 0 
shapefile_limpiado-306(1) J-1126 J-933 7.43911521637062 100 0.001524 0 
shapefile_limpiado-74(1) J-1076 J-352 41.0109453096661 100 0.001524 0 
shapefile_limpiado-74(2) J-352 J-419 46.8405046117076 100 0.001524 0 
shapefile_limpiado-381(1) J-737 J-235 29.2417277509925 75 0.001524 0 
shapefile_limpiado-381(2) J-235 J-622 7.41479143670728 75 0.001524 0 
shapefile_limpiado-395(1) J-450 J-1118 27.8662900598879 75 0.001524 0 
shapefile_limpiado-395(2) J-1118 J-668 2.12203760801372 75 0.001524 0 
shapefile_limpiado-798(1) J-1148 J-603 94.6774991465861 100 0.001524 0 
shapefile_limpiado-798(2) J-603 J-1149 27.6951773215269 100 0.001524 0 
shapefile_limpiado-376(2) J-737 J-566 12.5391273524992 100 0.001524 0 
shapefile_limpiado-768(1) J-812 J-945 16.3918678662991 100 0.001524 0 
shapefile_limpiado-768(2) J-945 J-813 28.7210756207666 100 0.001524 0 
shapefile_limpiado-802(1) J-562 J-616 8.44398097342241 100 0.001524 0 
shapefile_limpiado-802(2) J-616 J-563 11.9679328643731 100 0.001524 0 
shapefile_limpiado-9(1) J-479 J-931 15.3581191130905 100 0.001524 0 
shapefile_limpiado-9(2) J-931 J-891 39.1272022396815 100 0.001524 0 
shapefile_limpiado-405(1) J-586 J-985 12.988254519791 100 0.001524 0 
shapefile_limpiado-405(2) J-985 J-832 34.2355924378969 100 0.001524 0 
shapefile_limpiado-166(1) J-990 J-1123 60.5799587784957 75 0.001524 0 
shapefile_limpiado-166(2) J-1123 J-991 10.6463276778492 75 0.001524 0 
shapefile_limpiado-425(1) J-899 J-708 40.2639278895477 75 0.001524 0 
shapefile_limpiado-425(2) J-708 J-900 15.1770785844533 75 0.001524 0 
shapefile_limpiado-413(1) J-582 J-1016 14.6216191490495 100 0.001524 0 
shapefile_limpiado-413(2) J-1016 J-583 7.24782989040304 100 0.001524 0 
shapefile_limpiado-134(1) J-1038 J-623 41.7266632894052 150 0.001524 0 
shapefile_limpiado-134(2) J-623 J-1175 103.435784966738 150 0.001524 0 
shapefile_limpiado-8(1) J-445 J-356 2.07045384421517 100 0.001524 0 
shapefile_limpiado-8(2) J-356 J-169 13.9266968503053 100 0.001524 0 
shapefile_limpiado-149(1) J-827 J-249 43.4395729149819 100 0.001524 0 
shapefile_limpiado-149(2) J-249 J-621 20.0417353732515 100 0.001524 0 
shapefile_limpiado-96(1) J-825 J-847 51.8056242653997 75 0.001524 0 
shapefile_limpiado-96(2) J-847 J-1057 31.5340444452368 75 0.001524 0 
shapefile_limpiado-311(1) J-347 J-255 12.7207351752081 62 1.524 0 
shapefile_limpiado-311(2) J-255 J-302 48.1999302690262 62 1.524 0 
shapefile_limpiado-812(1) J-550 J-225 8.78184102758731 100 0.001524 0 
shapefile_limpiado-812(2) J-225 J-551 10.623242918676 100 0.001524 0 
shapefile_limpiado-430(1) J-882 J-735 38.9060807486389 75 0.001524 0 
shapefile_limpiado-430(2) J-735 J-522 13.5489460355933 75 0.001524 0 
shapefile_limpiado-318(1) J-482 J-1178 9.47002375123353 50 1.524 0 
shapefile_limpiado-318(2) J-1178 J-369 5.58248978564321 50 1.524 0 
shapefile_limpiado-53(2) J-989 J-685 7.04303167676245 100 0.001524 0 
shapefile_limpiado-795(1) J-543 J-937 46.771626854173 150 0.001524 0 
shapefile_limpiado-795(2) J-937 J-654 39.4155473512791 150 0.001524 0 
shapefile_limpiado-297(1) J-651 J-1211 11.1327881588273 100 0.001524 0 
shapefile_limpiado-297(2) J-1211 J-592 17.5106770161473 100 0.001524 0 
shapefile_limpiado-797(1) J-544 J-1148 49.0681786877663 150 0.001524 0 
shapefile_limpiado-797(2) J-1148 J-1167 90.0099419559254 150 0.001524 0 
shapefile_limpiado-159(2) J-489 J-720 5.45981222359274 150 0.001524 0 
shapefile_limpiado-101(1) J-516 J-460 15.6289330922197 100 0.001524 0 
shapefile_limpiado-101(2) J-460 J-517 1.72360360828565 100 0.001524 0 
shapefile_limpiado-796(1) J-543 J-1197 7.71954675123642 150 0.001524 0 
shapefile_limpiado-796(2) J-1197 J-544 11.4176211923019 150 0.001524 0 
shapefile_limpiado-126(1) J-1038 J-160 27.3673568668117 150 0.001524 0 
shapefile_limpiado-126(2) J-160 J-256 50.8150606604915 150 0.001524 0 
shapefile_limpiado-818(1) J-531 J-206 53.2459953257239 50 1.524 0 
shapefile_limpiado-818(2) J-206 J-924 6.17236692284486 50 1.524 0 
shapefile_limpiado-799(2) J-1167 J-421 61.9543538673667 100 0.001524 0 
shapefile_limpiado-108(1) J-460 J-517 1.72360360828565 100 0.001524 0 
shapefile_limpiado-108(2) J-517 J-461 12.1486509537354 100 0.001524 0 
shapefile_limpiado-340(1) J-672 J-836 7.72393132739438 100 0.001524 0 
shapefile_limpiado-340(2) J-836 J-673 22.9531256792334 100 0.001524 0 
shapefile_limpiado-137(2) J-1236 J-1210 2.61132537516137 150 0.001524 0 
shapefile_limpiado-388(2) J-259 J-715 17.7640082415805 200 0.26 0 
shapefile_limpiado-57(1) J-217 J-790 42.2730644774972 150 0.001524 0 
shapefile_limpiado-418(1) J-1176 J-730 68.9583263125602 100 0.001524 0 
shapefile_limpiado-418(2) J-730 J-1177 77.983704282015 100 0.001524 0 
shapefile_limpiado-421(1) J-659 J-696 25.4749567382407 100 0.001524 0 
shapefile_limpiado-421(2) J-696 J-660 3.73663275869937 100 0.001524 0 
shapefile_limpiado-77(1) J-838 J-1092 71.9120947050562 100 0.001524 0 
shapefile_limpiado-77(2) J-1092 J-351 61.8025179530181 100 0.001524 0 
shapefile_limpiado-64(2) J-3 J-4 0.156010628372909 100 0.001524 0 
shapefile_limpiado-22(1) J-239 J-315 22.0990783024391 150 0.001524 0 
shapefile_limpiado-22(2) J-315 J-378 18.4993230742981 150 0.001524 0 
shapefile_limpiado-373(1) J-804 J-520 42.789639671269 100 0.001524 0 
shapefile_limpiado-373(2) J-520 J-612 8.53507544149544 100 0.001524 0 
shapefile_limpiado-129(1) J-907 J-257 7.95307354367164 150 0.001524 0 
shapefile_limpiado-129(2) J-257 J-908 48.0045133342247 150 0.001524 0 
shapefile_limpiado-167(1) J-1123 J-1086 51.7691574524936 100 0.001524 0 
shapefile_limpiado-167(2) J-1086 J-904 52.4537416173759 100 0.001524 0 
shapefile_limpiado-56(1) J-237 J-103 2.34795085125224 150 0.001524 0 
shapefile_limpiado-56(2) J-103 J-216 2.64819239981452 150 0.001524 0 
shapefile_limpiado-58(1) J-216 J-109 1.64577148769387 150 0.001524 0 
shapefile_limpiado-458(1) J-1132 J-882 45.3186750251103 200 0.001524 0 
shapefile_limpiado-30(1) J-355 J-99 3.16769738573338 100 0.001524 0 
shapefile_limpiado-30(2) J-99 J-356 5.69546402423954 100 0.001524 0 
shapefile_limpiado-313(1) J-303 J-227 52.0763818244207 250 0.26 0 
shapefile_limpiado-375(1) J-613 J-879 59.428255500117 100 0.001524 0 