[TITLE]
Montecarlo
Prueba para correr varias veces

[JUNCTIONS]
;ID              	Elev        	Demand      	Pattern         
