[TITLE]
Montecarlo: Red de San Pablo
Roy González V. 2025

[JUNCTIONS]
;ID              	Elev        	Demand      	Pattern         
