[TITLE]
Scenario: Roy González, Montecarlo. San Pablo 
Date: 18/6/2025 12:10 

[PATTERNS]
TanqueSanPablo 0.609 0.608139422 0.597074927 0.555715708 0.506 0.542182987 0.653525611 0.79533733 
TanqueSanPablo 0.96211368 1.117069302 1.285501367 1.388282074 1.37101631 1.362274782 1.395893099 1.3967 
TanqueSanPablo 1.371564349 1.216644946 1.115212693 1.035176731 1.007011752 0.971547864 0.906940642 0.767846497 
TanqueSanPablo 0.609 

[JUNCTIONS]
J-3 1160.64514160156 0 
J-4 1160.65466308594 0 
J-58 1150.52404785156 0 
J-59 1150.47814941406 0 
J-80 1191.47680664063 0 
J-97 1140 0 
J-98 1140 0 
J-99 1168.20751953125 0 
J-100 1168.13781738281 0 
J-103 1160.56384277344 0 
J-108 1160.78723144531 0 
J-109 1160.79125976563 0 
J-110 1152.5107421875 0 
J-111 1152.60363769531 0 
J-117 1151.74291992188 0 
J-118 1151.85571289063 0 
J-126 1162.29418945313 0 
J-142 1140.251953125 0 
J-143 1140.31628417969 0 
J-145 1140.17883300781 0 
J-159 1153.12780761719 0 
J-160 1152.90173339844 0 
J-163 1150.71435546875 0 
J-164 1150.63879394531 0 
J-169 1167.70971679688 0 
J-170 1167.56213378906 0 
J-176 1164.79956054688 0 
J-177 1164.77209472656 0 
J-178 1167.65478515625 0 
J-179 1167.8037109375 0 
J-184 1155.77624511719 0 
J-185 1155.89953613281 0 
J-186 1167.59826660156 0 
J-189 1165 0 
J-190 1165 0 
J-193 1157.69250488281 0 
J-194 1157.76403808594 0 
J-195 1159.23767089844 0 
J-196 1159.44702148438 0 
J-197 1167.97827148438 0 
J-200 1163.23767089844 0 
J-201 1163.21997070313 0 
J-204 1153.44970703125 0 
J-205 1152.86755371094 0 
J-206 1158.6083984375 0 
J-207 1158.39978027344 0 
J-208 1147 0 
J-209 1147 0 
J-210 1151.50512695313 0 
J-216 1160.62866210938 0 
J-217 1160.98034667969 0 
J-218 1165.9462890625 0 
J-219 1166.24621582031 0 
J-221 1150.52941894531 0 
J-222 1155.68981933594 0 
J-223 1155.50024414063 0 
J-224 1156 0 
J-225 1156 0 
J-226 1162.83679199219 0 
J-227 1162.923828125 0 
J-228 1162.32641601563 0 
J-229 1162.13232421875 0 
J-230 1157 0 
J-231 1157 0 
J-232 1167.1806640625 0 
J-233 1166.95288085938 0 
J-235 1154.02795410156 0 
J-236 1154.04406738281 0 
J-237 1160.51098632813 0 
J-238 1167.97399902344 0 
J-239 1167.86901855469 0 
J-245 1157.89331054688 0 
J-246 1157.93566894531 0 
J-249 1151.15112304688 0 
J-250 1150.81481933594 0 
J-251 1163 0 
J-252 1163 0 
J-255 1162.79931640625 0 
J-256 1152.74194335938 0 
J-257 1153.14440917969 0 
J-259 1140.05529785156 0 
J-262 1160.14758300781 0 
J-265 1145.88635253906 0 
J-266 1147.75610351563 0 
J-267 1160.77587890625 0 
J-271 1165 0 
J-278 1154 0 
J-279 1154 0 
J-282 1161.09875488281 0 
J-285 1151.08935546875 0 
J-286 1163.96862792969 0 
J-287 1164.13403320313 0 
J-291 1151.3515625 0 
J-292 1152.00854492188 0 
J-293 1165 0 
J-294 1165 0 
J-302 1165.57751464844 0 
J-303 1165.9619140625 0 
J-304 1152.49328613281 0 
J-313 1144.60119628906 0 
J-314 1145.26147460938 0 
J-315 1167.49572753906 0 
J-316 1167.71118164063 0 
J-321 1162.21887207031 0 
J-324 1167.87231445313 0 
J-325 1167.78942871094 0 
J-328 1156.5283203125 0 
J-329 1156.75 0 
J-330 1157.32189941406 0 
J-331 1157.53479003906 0 
J-334 1157.9111328125 0 
J-335 1157.716796875 0 
J-336 1157.62658691406 0 
J-342 1168.62951660156 0 
J-343 1168.42736816406 0 
J-346 1162.32995605469 0 
J-347 1162.31262207031 0 
J-348 1161.77868652344 0 
J-351 1169.77160644531 0 
J-352 1169.46667480469 0 
J-355 1168.33703613281 0 
J-356 1167.91040039063 0 
J-357 1140 0 
J-360 1165 0 
J-361 1165 0 
J-362 1163.42126464844 0 
J-363 1163.35046386719 0 
J-364 1142.45935058594 0 
J-365 1142.43176269531 0 
J-369 1166.31750488281 0 
J-374 1166.01135253906 0 
J-375 1166.40649414063 0 
J-376 1147 0 
J-377 1147 0 
J-378 1167.548828125 0 
J-379 1167.28198242188 0 
J-380 1150.96020507813 0 
J-381 1162.494140625 0 
J-382 1128.14538574219 0 
J-383 1146.1123046875 0 
J-387 1164.08911132813 0 
J-388 1163.80676269531 0 
J-394 1163.31567382813 0 
J-396 1167.01989746094 0 
J-397 1167 0 
J-398 1160.9501953125 0 
J-399 1161.01428222656 0 
J-400 1154.9248046875 0 
J-401 1155.20153808594 0 
J-402 1160.06713867188 0 
J-403 1160.82946777344 0 
J-405 1157.74584960938 0 
J-417 1158.03833007813 0 
J-418 1157.65234375 0 
J-419 1169.10009765625 0 
J-420 1168.66040039063 0 
J-421 1152.18920898438 0 
J-422 1151.43676757813 0 
J-423 1170.46142578125 0 
J-424 1169.92883300781 0 
J-429 1162.99731445313 0 
J-430 1162.65222167969 0 
J-433 1150.11840820313 0 
J-434 1147.46606445313 0 
J-435 1146.580078125 0 
J-442 1157.21704101563 0 
J-443 1156.12585449219 0 
J-444 1168.58117675781 0 
J-445 1167.97277832031 0 
J-450 1142.63940429688 0 
J-452 1162.23278808594 0 
J-453 1160.59533691406 0 
J-456 1150.5986328125 0 
J-457 1143.41345214844 0 
J-458 1164.12097167969 0 
J-460 1154.34423828125 0 
J-461 1154.56140136719 0 
J-462 1158.82299804688 0 
J-463 1159.55297851563 0 
J-464 1163.39331054688 0 
J-465 1158.65258789063 0 
J-470 1165 0 
J-475 1143.43359375 0 
J-476 1143.06042480469 0 
J-477 1153.19812011719 0 
J-478 1153.04150390625 0 
J-479 1167.58776855469 0 
J-482 1165.34204101563 0 
J-486 1157.61059570313 0 
J-487 1157.67309570313 0 
J-488 1149.55041503906 0 
J-489 1148.52221679688 0 
J-491 1163.29052734375 0 
J-492 1163 0 
J-493 1186.99853515625 0 
J-502 1146.83251953125 0 
J-503 1146.33654785156 0 
J-512 1157 0 
J-515 1157.18884277344 0 
J-516 1154.47546386719 0 
J-517 1154.33752441406 0 
J-518 1170.76477050781 0 
J-519 1171.37719726563 0 
J-520 1146.77856445313 0 
J-521 1147.623046875 0 
J-522 1141.85559082031 0 
J-523 1142.61328125 0 
J-526 1185.2255859375 0 
J-531 1157.19775390625 0 
J-532 1156 0 
J-536 1184.73022460938 0 
J-541 1164.57312011719 0 
J-542 1165.79382324219 0 
J-543 1157.35559082031 0 
J-544 1156.96936035156 0 
J-545 1161.7138671875 0 
J-546 1163.63220214844 0 
J-547 1164.43090820313 0 
J-550 1156.68688964844 0 
J-551 1156 0 
J-554 1156.05004882813 0 
J-555 1169.09301757813 0 
J-562 1159.58471679688 0 
J-563 1161.36071777344 0 
J-564 1157 0 
J-565 1155.50451660156 0 
J-566 1155.66821289063 0 
J-572 1165.32299804688 0 
J-573 1156 0 
J-574 1159.01843261719 0 
J-582 1161.73742675781 0 
J-583 1160.96801757813 0 
J-585 1152.01220703125 0 
J-586 1149.2861328125 0 
J-587 1160.78967285156 0 
J-588 1164.23706054688 0 
J-592 1164.86999511719 0 
J-593 1165.71166992188 0 
J-594 1155.56677246094 0 
J-595 1156.89575195313 0 
J-598 1163.17895507813 0 
J-600 1160.83032226563 0 
J-601 1161.28051757813 0 
J-602 1149.98107910156 0 
J-603 1148.58020019531 0 
J-608 1157.5537109375 0 
J-609 1159.88647460938 0 
J-610 1164.25964355469 0 
J-611 1165.58508300781 0 
J-612 1147.05908203125 0 
J-613 1148.5556640625 0 
J-616 1160.38842773438 0 
J-619 1165.41638183594 0 
J-621 1149.3291015625 0 
J-622 1153.38598632813 0 
J-623 1151.15490722656 0 
J-624 1154.01489257813 0 
J-627 1162.79663085938 0 
J-628 1162.642578125 0 
J-631 1163.52392578125 0 
J-632 1162.744140625 0 
J-634 1166.62927246094 0 
J-644 1152.33996582031 0 
J-645 1152.89074707031 0 
J-651 1163 0 
J-654 1156.59741210938 0 
J-657 1150.03430175781 0 
J-658 1151.03149414063 0 
J-659 1155.05505371094 0 
J-660 1153.33435058594 0 
J-662 1156.34118652344 0 
J-663 1158.85205078125 0 
J-667 1148.75598144531 0 
J-668 1143.62036132813 0 
J-669 1161.82543945313 0 
J-670 1164.77172851563 0 
J-671 1153.71984863281 0 
J-672 1157.56713867188 0 
J-673 1159.79565429688 0 
J-676 1167.74890136719 0 
J-677 1167.75769042969 0 
J-678 1169.79125976563 0 
J-683 1143.43151855469 0 
J-685 1155.02587890625 0 
J-693 1166.85998535156 0 
J-696 1153.552734375 0 
J-697 1155.36218261719 0 
J-700 1142.26123046875 0 
J-701 1144.048828125 0 
J-702 1152.54467773438 0 
J-703 1168.82043457031 0 
J-704 1157.42541503906 0 
J-705 1156 0 
J-706 1146.80700683594 0 
J-707 1148.31103515625 0 
J-708 1158.68115234375 0 
J-709 1161.28515625 0 
J-713 1155.51123046875 0 
J-714 1140.31555175781 0 
J-715 1140 0 
J-720 1149.19140625 0 
J-721 1152.64392089844 0 
J-722 1167.52380371094 0 
J-723 1145.02172851563 0 
J-724 1148.26513671875 0 
J-730 1155.92419433594 0 
J-731 1155.35986328125 0 
J-732 1157.56958007813 0 
J-733 1159.90905761719 0 
J-734 1141.63391113281 0 
J-735 1141.30053710938 0 
J-736 1162.74609375 0 
J-737 1155.74108886719 0 
J-741 1145.51843261719 0 
J-748 1166.36254882813 0 
J-749 1159.35876464844 0 
J-752 1159.79772949219 0 
J-754 1155.669921875 0 
J-758 1154.96301269531 0 
J-759 1160.58752441406 0 
J-765 1145.21887207031 0 
J-770 1142.63488769531 0 
J-771 1140.25158691406 0 
J-776 1153.04028320313 0 
J-777 1155.13342285156 0 
J-788 1168.60412597656 0 
J-790 1161.51208496094 0 
J-793 1162.30737304688 0 
J-796 1150.41162109375 0 
J-799 1152.09973144531 0 
J-803 1142.87097167969 0 
J-804 1145.53479003906 0 
J-805 1143.50903320313 0 
J-806 1142.22692871094 0 
J-812 1168.96789550781 0 
J-813 1166.96704101563 0 
J-822 1148.44006347656 0 
J-823 1146.552734375 0 
J-825 1155.82836914063 0 
J-826 1156.87585449219 0 
J-827 1155 0 
J-830 1169.71496582031 0 
J-831 1170.86364746094 0 
J-832 1145.02954101563 0 
J-833 1152.96838378906 0 
J-836 1158.18432617188 0 
J-837 1155.41650390625 0 
J-838 1163.12622070313 0 
J-839 1161.48645019531 0 
J-842 1156.29431152344 0 
J-843 1157.31494140625 0 
J-844 1158.24548339844 0 
J-845 1142.84436035156 0 
J-846 1159.7744140625 0 
J-847 1152.73876953125 0 
J-848 1153.31762695313 0 
J-849 1144.66125488281 0 
J-856 1163.47143554688 0 
J-862 1170.87561035156 0 
J-866 1151.306640625 0 
J-867 1153.63195800781 0 
J-868 1155.08337402344 0 
J-869 1155.59875488281 0 
J-870 1150 0 
J-871 1148.63537597656 0 
J-872 1161.90344238281 0 
J-873 1155.05505371094 0 
J-874 1157.32092285156 0 
J-875 1161.51245117188 0 
J-879 1152.91003417969 0 
J-881 1157.55993652344 0 
J-882 1140.01013183594 0 
J-890 1142.84716796875 0 
J-891 1167.61511230469 0 
J-894 1142.18994140625 0 
J-895 1162.82153320313 0 
J-898 1150.09240722656 0 
J-899 1160.48413085938 0 
J-900 1157.91650390625 0 
J-903 1165.50952148438 0 
J-904 1148.0693359375 0 
J-907 1154.44372558594 0 
J-908 1147 0 
J-913 1145.71813964844 0 
J-914 1145.57006835938 0 
J-923 1169.89294433594 0 
J-924 1158.53698730469 0 
J-925 1157.79833984375 0 
J-927 1169.73193359375 0 
J-930 1168.57641601563 0 
J-931 1167.64697265625 0 
J-933 1163 0 
J-934 1161.14208984375 0 
J-937 1156.98095703125 0 
J-942 1158.34167480469 0 
J-943 1160.23278808594 0 
J-944 1154.74438476563 0 
J-945 1168.34875488281 0 
J-946 1149.35437011719 0 
J-947 1155.21228027344 0 
J-948 1159.83642578125 0 
J-949 1142.39562988281 0 
J-950 1152.36987304688 0 
J-951 1156.31188964844 0 
J-954 1162.00915527344 0 
J-962 1155.30383300781 0 
J-963 1157.15747070313 0 
J-968 1166.40930175781 0 
J-977 1140.45349121094 0 
J-978 1142.00830078125 0 
J-979 1165.9150390625 0 
J-983 1143.03784179688 0 
J-985 1147.91101074219 0 
J-986 1154.75756835938 0 
J-989 1155.6064453125 0 
J-990 1149.68005371094 0 
J-991 1143.25476074219 0 
J-1002 1149.71948242188 0 
J-1003 1150 0 
J-1007 1166.04821777344 0 
J-1010 1146.3525390625 0 
J-1011 1146.62414550781 0 
J-1012 1149.62634277344 0 
J-1013 1154.85925292969 0 
J-1014 1183.4150390625 0 
J-1015 1155.35278320313 0 
J-1016 1161.30871582031 0 
J-1025 1146.98132324219 0 
J-1026 1169.75207519531 0 
J-1029 1164.35144042969 0 
J-1038 1152.52001953125 0 
J-1041 1163 0 
J-1053 1161.02746582031 0 
J-1054 1168.01647949219 0 
J-1055 1156.34558105469 0 
J-1056 1144.63635253906 0 
J-1057 1150.88830566406 0 
J-1059 1168.76538085938 0 
J-1067 1153.13940429688 0 
J-1068 1145.54602050781 0 
J-1076 1167.68676757813 0 
J-1077 1154.18334960938 0 
J-1078 1183.78454589844 0 
J-1080 1149.109375 0 
J-1081 1150.49792480469 0 
J-1085 1152.79150390625 0 
J-1086 1144.90454101563 0 
J-1092 1169.19677734375 0 
J-1093 1163.91076660156 0 
J-1104 1157.79174804688 0 
J-1107 1162 0 
J-1116 1140.06762695313 0 
J-1118 1143.53430175781 0 
J-1119 1145.77075195313 0 
J-1123 1144.05676269531 0 
J-1126 1163.66625976563 0 
J-1128 1169.859375 0 
J-1132 1139.72888183594 0 
J-1139 1168.70434570313 0 
J-1140 1160.30200195313 0 
J-1141 1152.02062988281 0 
J-1148 1156.2314453125 0 
J-1149 1144.48071289063 0 
J-1152 1167.36303710938 0 
J-1153 1146.35 0 
J-1154 1151.35388183594 0 
J-1157 1147.89538574219 0 
J-1166 1136.72766113281 0 
J-1167 1154.04052734375 0 
J-1168 1151.22509765625 0 
J-1175 1144.79296875 0 
J-1176 1152.07788085938 0 
J-1177 1162.04602050781 0 
J-1178 1165.94714355469 0 
J-1183 1142.89624023438 0 
J-1192 1183.8408203125 0 
J-1196 1149.18603515625 0 
J-1197 1157.08923339844 0 
J-1198 1137.10168457031 0 
J-1205 1166.07214355469 0 
J-1206 1182.97814941406 0 
J-1210 1142.5 0 
J-1211 1163 0 
J-1212 1165.52221679688 0 
J-1218 1137.0029296875 0 
J-1236 1143 0 
J-1264 1191.71594238281 0 
J-1350 1140.25671386719 0 
J-1351 1140.03259277344 0 
J-1355 1164.45449183906 0 
J-1356 1167.84812144126 0 
J-1358 1164.96716308594 0 
J-1359 1163 0 
J-1360 1165.86535644531 0 
J-1361 1168.1015625 0 
J-1362 1136.24272329832 0 
J-1363 1151.49987792969 0 
J-1364 1149.30479417498 0 
J-1365 1163.49277841984 0 
J-1366 1137.39818961527 0 
J-1367 1156.37453519866 0 

[RESERVOIRS]
R-11 1192.21850585938 

[DEMANDS]

