
[EMITTERS]
J-1330 0.700000164615536 

[VALVES]
TCV-15 5123-A 5123-B 152.40000000061 TCV 0 0 

[PIPES]
shapefile_limpiado-607 J-63 J-64 0.998645112233074 50 0.001524 0 
shapefile_limpiado-521 J-69 J-70 1.00002531694127 50 0.001524 0 
shapefile_limpiado-610 J-120 J-121 1.99632493945912 75 0.001524 0 
shapefile_limpiado-591 J-161 J-162 2.74726059851265 75 0.001524 0 
shapefile_limpiado-598 J-171 J-172 3.21958387926385 75 0.001524 0 
shapefile_limpiado-574 J-263 J-264 5.29227308351753 75 0.001524 0 
shapefile_limpiado-553 J-337 J-338 8.13420266380619 100 0.001524 0 
shapefile_limpiado-564 J-366 J-367 8.93329829552925 50 0.001524 0 
shapefile_limpiado-995 J-406 J-368 10.752866767279 300 0.0015240000000061 0 
shapefile_limpiado-609 J-448 J-449 13.0287234223575 100 0.001524 0 
shapefile_limpiado-563 J-459 J-366 13.7628661576175 50 0.001524 0 
shapefile_limpiado-513 J-473 J-474 14.6777304309059 50 0.001524 0 
shapefile_limpiado-589 J-510 J-511 17.0951843230381 75 1.524 0 
shapefile_limpiado-565 J-513 J-514 17.2266411272766 100 0.001524 0 
shapefile_limpiado-543 J-527 J-528 18.4653641079418 100 0.001524 0 
shapefile_limpiado-569 J-560 J-561 20.351015490108 100 0.001524 0 
shapefile_limpiado-659 J-570 J-571 20.9304807400401 100 0.001524 0 
shapefile_limpiado-523 J-596 J-597 23.154658267884 50 0.001524 0 
shapefile_limpiado-582 J-599 J-263 23.8474745338536 75 0.001524 0 
shapefile_limpiado-496 J-604 J-605 24.6923875413242 37 0.001524 0 
shapefile_limpiado-570 J-629 J-630 26.7341385517545 100 0.001524 0 
shapefile_limpiado-604 J-652 J-653 28.7699324476286 50 0.001524 0 
shapefile_limpiado-587 J-655 J-656 28.9840954335783 100 0.001524 0 
shapefile_limpiado-511 J-686 J-687 32.1908895165279 37 0.001524 0 
shapefile_limpiado-657 J-570 J-691 33.3749027279254 100 0.001524 0 
shapefile_limpiado-592 J-694 J-695 33.4436390892451 100 0.001524 0 
shapefile_limpiado-658 J-698 J-699 34.1148905927156 100 0.001524 0 
shapefile_limpiado-573 J-710 J-711 34.710675972356 50 0.001524 0 
shapefile_limpiado-502 J-739 J-473 36.8876533070546 50 0.001524 0 
shapefile_limpiado-498 J-743 J-744 37.7062511460572 50 0.001524 0 
shapefile_limpiado-497 J-605 J-745 37.8735128451927 37 0.001524 0 
shapefile_limpiado-566 J-514 J-764 39.5270204250475 100 0.001524 0 
shapefile_limpiado-1005 J-772 J-773 43.9123490866014 100 0.001524 0 
shapefile_limpiado-505 J-774 J-775 40.4413623663969 50 0.001524 0 
shapefile_limpiado-583 J-778 J-599 40.6020874474861 75 0.001524 0 
shapefile_limpiado-541 J-367 J-789 41.9400642300269 50 0.001524 0 
shapefile_limpiado-661 J-691 J-698 44.4915279889809 100 0.001524 0 
shapefile_limpiado-605 J-828 J-829 46.7684887659279 50 0.001524 0 
shapefile_limpiado-571 J-835 J-630 48.6710301352711 100 0.001524 0 
shapefile_limpiado-548 J-630 J-855 48.8109264679539 100 0.001524 0 
shapefile_limpiado-508 J-857 J-858 49.5680720784778 50 0.001524 0 
shapefile_limpiado-575 J-104 J-878 52.1667965158639 100 0.001524 0 
shapefile_limpiado-608 J-652 J-828 51.6384426046792 50 0.001524 0 
shapefile_limpiado-510 J-901 J-902 55.5559202010394 50 0.001524 0 
shapefile_limpiado-554 J-911 J-912 56.4852552458479 100 0.001524 0 
shapefile_limpiado-660 J-691 J-915 56.6917486170782 100 0.001524 0 
shapefile_limpiado-542 J-789 J-527 59.1421208930803 50 0.001524 0 
shapefile_limpiado-572 J-630 J-560 59.0047051741301 100 0.001524 0 
shapefile_limpiado-537 J-928 J-929 60.1223629234143 100 0.001524 0 
shapefile_limpiado-550 J-958 J-959 64.8722556013745 100 0.001524 0 
shapefile_limpiado-504 J-775 J-964 65.6876174025179 50 0.001524 0 
shapefile_limpiado-579 J-919 J-510 67.4778071016332 75 1.524 0 
shapefile_limpiado-540 J-981 J-982 69.2365677439955 100 0.001524 0 
shapefile_limpiado-588 J-511 J-984 69.6625491805032 75 1.524 0 
shapefile_limpiado-585 J-987 J-988 69.9134943832795 50 0.001524 0 
shapefile_limpiado-539 J-1005 J-1006 73.0076283416252 100 0.001524 0 
shapefile_limpiado-907 J-1008 J-1009 73.8975989506418 100 0.001524 0 
shapefile_limpiado-538 J-1030 J-1031 77.1834697982711 100 0.001524 0 
shapefile_limpiado-593 J-695 J-1035 78.024785208871 100 0.001524 0 
shapefile_limpiado-544 J-1039 J-508 78.4360741212143 100 0.001524 0 
shapefile_limpiado-500 J-964 J-1046 79.2570750933446 50 0.001524 0 
shapefile_limpiado-545 J-528 J-1039 90.375936789924 100 0.001524 0 
shapefile_limpiado-568 J-1094 J-1095 91.6100179439854 100 0.001524 0 
shapefile_limpiado-597 J-1112 J-1113 97.8113596427063 75 0.001524 0 
shapefile_limpiado-600 J-635 J-1117 102.981477221199 75 0.001524 0 
shapefile_limpiado-594 J-1121 J-695 102.911928140591 100 0.001524 0 
shapefile_limpiado-525 J-643 J-1122 102.985099963298 50 0.001524 0 
shapefile_limpiado-503 J-474 J-857 110.616331986202 50 0.001524 0 
shapefile_limpiado-501 J-1046 J-473 119.732846453699 50 0.001524 0 
shapefile_limpiado-506 J-744 J-774 134.763202113721 50 0.001524 0 
shapefile_limpiado-494 J-1190 J-1191 168.573946867436 37 0.001524 0 
shapefile_limpiado-499 J-745 J-743 182.172594958729 37 0.001524 0 
shapefile_limpiado-599 J-1112 J-1199 221.962137025401 75 0.001524 0 
shapefile_limpiado-486 J-1191 J-1105 192.095435491613 37 0.001524 0 
shapefile_limpiado-461 J-1226 J-1227 308.168251854081 100 0.001524 0 
shapefile_limpiado-877 J-1009 J-772 802.701823168618 100 0.001524 0 
shapefile_limpiado-1000 J-773 J-406 893.406056971271 300 0.0015240000000061 0 
shapefile_limpiado-1002(2) R-11 J-368 13.4592913727378 300 0.0015240000000061 0 
shapefile_limpiado-549(1) J-1146 J-1199 120.908891567931 100 0.001524 0 
shapefile_limpiado-876(2) J-928 J-1156 7.00146265085097 100 0.001524 0 
shapefile_limpiado-460(1) J-1219 J-1226 22.0241117771441 50 0.001524 0 
shapefile_limpiado-460(2) J-1226 J-744 236.042798021111 50 0.001524 0 
shapefile_limpiado-546(1) J-508 J-1150 6.18626355108369 100 0.001524 0 
shapefile_limpiado-546(2) J-1150 J-509 10.6510669657311 100 0.001524 0 
shapefile_limpiado-679(1) J-1008 J-571 163.147659401144 62 1.524 0 
shapefile_limpiado-601(1) J-1145 J-171 119.693424063634 100 0.001524 0 
shapefile_limpiado-601(2) J-171 J-1146 2.7501331765283 100 0.001524 0 
shapefile_limpiado-527(1) J-1127 J-449 134.44977807875 75 1.524 0 
shapefile_limpiado-596(1) J-172 J-1113 5.29913590729032 75 0.001524 0 
shapefile_limpiado-596(2) J-1113 J-635 22.103821862952 75 0.001524 0 
shapefile_limpiado-524(1) J-597 J-633 21.0752757036211 50 0.001524 0 
shapefile_limpiado-524(2) J-633 J-643 6.78717972586541 50 0.001524 0 
shapefile_limpiado-584(1) J-448 J-161 64.4282900082161 100 0.001524 0 
shapefile_limpiado-584(2) J-161 J-1222 409.567974329418 100 0.001524 0 
shapefile_limpiado-595(1) J-1222 J-120 156.807648088392 100 0.001524 0 
shapefile_limpiado-595(2) J-120 J-1145 278.873904200461 100 0.001524 0 
shapefile_limpiado-567(1) J-817 J-513 20.2086917936409 37 0.001524 0 
shapefile_limpiado-567(2) J-513 J-818 25.4005435204531 37 0.001524 0 
shapefile_limpiado-509(1) J-902 J-686 14.0538643344997 50 0.001524 0 
shapefile_limpiado-551(2) J-911 J-337 35.6630690754055 50 0.001524 0 
shapefile_limpiado-495(1) J-1195 J-1190 170.194927320836 37 0.001524 0 
shapefile_limpiado-495(2) J-1190 J-604 4.10147054395641 37 0.001524 0 
shapefile_limpiado-586(1) J-656 J-987 1.61487919101326 100 0.001524 0 
shapefile_limpiado-586(2) J-987 J-742 36.0144547846793 100 0.001524 0 
shapefile_limpiado-576(1) J-878 J-710 2.05840481706801 100 0.001524 0 
shapefile_limpiado-576(2) J-710 J-655 71.8195547136335 100 0.001524 0 
shapefile_limpiado-580(1) J-105 J-264 14.0828707492681 75 1.524 0 
shapefile_limpiado-580(2) J-264 J-919 43.0433930795783 75 1.524 0 
shapefile_limpiado-547(1) J-1150 J-855 48.2741865473916 100 0.001524 0 
shapefile_limpiado-547(2) J-855 J-1151 75.0866995582994 100 0.001524 0 
shapefile_limpiado-507(1) J-858 J-687 74.182939204816 50 0.001524 0 
shapefile_limpiado-507(2) J-687 J-1174 69.2579570789443 50 0.001524 0 
shapefile_limpiado-602(1) J-1091 J-829 1.1834804639253 50 0.001524 0 
shapefile_limpiado-602(2) J-829 J-876 89.8339061794476 50 0.001524 0 
shapefile_limpiado-536(2) J-1094 J-818 23.7960664449152 100 0.001524 0 
shapefile_limpiado-518(1) J-55 J-54 2.85479557742053 100 0.001524 0 
shapefile_limpiado-522(2) J-70 J-69 1.00002531694127 50 0.001524 0 
shapefile_limpiado-549(2)(2) J-835 J-509 39.10292984747 100 0.001524 0 
shapefile_limpiado-551(1)(1) J-1087 J-958 18.708283123644 50 0.001524 0 
shapefile_limpiado-551(1)(2) J-958 J-911 40.289198105969 50 0.001524 0 
shapefile_limpiado-590(1)(1) J-778 J-162 22.9811387804657 75 0.001524 0 
shapefile_limpiado-590(1)(2) J-162 J-1121 410.601427021487 75 0.001524 0 
shapefile_limpiado-590(2)(1) J-1121 J-121 152.484739564299 75 0.001524 0 
shapefile_limpiado-590(2)(2) J-121 J-1117 274.974844171024 75 0.001524 0 
shapefile_limpiado-518(2)(1) J-54 J-55 2.85479557742053 100 0.001524 0 
shapefile_limpiado-606(1)(2) J-63 J-64 0.998645112233074 50 0.001524 0 
shapefile_limpiado-876(1)(1)(1) J-1009 J-505 91.8747341320709 100 0.001524 0 
shapefile_limpiado-876(1)(2)(1) J-1005 J-981 58.2577425752912 100 0.001524 0 
shapefile_limpiado-876(1)(2)(2) J-981 J-928 51.2815583858508 100 0.001524 0 
shapefile_limpiado-549(2)(1)(1) J-1199 J-877 66.5958831490112 100 0.001524 0 
shapefile_limpiado-549(2)(1)(2) J-877 J-835 51.6512857047744 100 0.001524 0 
shapefile_limpiado-516(1)(1) J-281 J-596 8.21997251001072 75 1.524 0 
shapefile_limpiado-517(2)(2) J-55 J-54 2.85479557742053 100 0.001524 0 
shapefile_limpiado-518(2)(2)(1) J-55 J-54 2.85479557742053 100 0.001524 0 
shapefile_limpiado-606(2)(1) J-64 J-63 0.998645112233074 50 0.001524 0 
shapefile_limpiado-603(2) J-64 J-63 0.998645112233074 50 0.001524 0 
shapefile_limpiado-522(1)(2) J-69 J-70 1.00002531694127 50 0.001524 0 
shapefile_limpiado-603(1)(2) J-63 J-64 0.998645112233074 50 0.001524 0 
shapefile_limpiado-518(2)(2)(2)(1) J-54 J-55 2.85479557742053 100 0.001524 0 
shapefile_limpiado-606(2)(2)(1) J-63 J-64 0.998645112233074 50 0.001524 0 
shapefile_limpiado-517(2)(1)(2) J-54 J-55 2.85479557742053 100 0.001524 0 
shapefile_limpiado-522(1)(1)(2) J-70 J-69 1.00002531694127 50 0.001524 0 
shapefile_limpiado-518(2)(2)(2)(2)(1) J-55 J-54 2.85479557742053 100 0.001524 0 
shapefile_limpiado-606(1)(1)(2) J-64 J-63 0.998645112233074 50 0.001524 0 
shapefile_limpiado-606(2)(2)(2)(1) J-64 J-63 0.998645112233074 50 0.001524 0 
shapefile_limpiado-522(1)(1)(1)(2) J-69 J-70 1.00002531694127 50 0.001524 0 
shapefile_limpiado-518(2)(2)(2)(2)(2)(1) J-54 J-55 2.85479557742053 100 0.001524 0 
shapefile_limpiado-606(2)(2)(2)(2)(1) J-63 J-64 0.998645112233074 50 0.001524 0 
shapefile_limpiado-606(1)(1)(1)(2) J-63 J-64 0.998645112233074 50 0.001524 0 
shapefile_limpiado-517(2)(1)(1)(1)(2) J-54 J-55 2.85479557742053 100 0.001524 0 
shapefile_limpiado-522(1)(1)(1)(1)(2) J-70 J-69 1.00002531694127 50 0.001524 0 
shapefile_limpiado-517(2)(1)(1)(1)(1)(2) J-55 J-54 2.85479557742053 100 0.001524 0 
shapefile_limpiado-603(1)(1)(2) J-64 J-63 0.998645112233074 50 0.001524 0 
shapefile_limpiado-606(2)(2)(2)(2)(2)(1) J-64 J-63 0.998645112233074 50 0.001524 0 
shapefile_limpiado-522(1)(1)(1)(1)(1)(2) J-69 J-70 1.00002531694127 50 0.001524 0 
shapefile_limpiado-603(1)(1)(1)(1) J-653 J-63 34.4104086305334 50 0.001524 0 
shapefile_limpiado-603(1)(1)(1)(2) J-63 J-64 0.998645112233074 50 0.001524 0 
shapefile_limpiado-518(2)(2)(2)(2)(2)(2)(2)(1) J-54 J-55 2.85479557742053 100 0.001524 0 
shapefile_limpiado-606(2)(2)(2)(2)(2)(2)(1) J-63 J-64 0.998645112233074 50 0.001524 0 
shapefile_limpiado-517(2)(1)(1)(1)(1)(1)(2) J-54 J-55 2.85479557742053 100 0.001524 0 
shapefile_limpiado-522(1)(1)(1)(1)(1)(1)(2) J-70 J-69 1.00002531694127 50 0.001524 0 
shapefile_limpiado-518(2)(2)(2)(2)(2)(2)(2)(2)(1) J-55 J-54 2.85479557742053 100 0.001524 0 
shapefile_limpiado-606(1)(1)(1)(1)(2) J-64 J-63 0.998645112233074 50 0.001524 0 
shapefile_limpiado-606(2)(2)(2)(2)(2)(2)(2)(1) J-64 J-63 0.998645112233074 50 0.001524 0 
shapefile_limpiado-522(1)(1)(1)(1)(1)(1)(1)(2) J-69 J-70 1.00002531694127 50 0.001524 0 
shapefile_limpiado-536(1)(1) J-1156 J-1030 54.5520179088049 100 0.001524 0 
shapefile_limpiado-536(1)(2) J-1030 J-1094 50.9318564580069 100 0.001524 0 
shapefile_limpiado-518(2)(2)(2)(2)(2)(2)(2)(2)(2)(1) J-54 J-55 2.85479557742053 100 0.001524 0 
shapefile_limpiado-606(2)(2)(2)(2)(2)(2)(2)(2)(1) J-63 J-64 0.998645112233074 50 0.001524 0 
shapefile_limpiado-606(2)(2)(2)(2)(2)(2)(2)(2)(2) J-64 J-877 48.7312828542771 50 0.001524 0 
shapefile_limpiado-578(1)(1)(1)(1)(1)(1)(1)(1)(1) J-692 J-47 33.7530577169364 100 0.001524 0 
shapefile_limpiado-606(1)(1)(1)(1)(1)(1) J-876 J-63 2.14172673849089 50 0.001524 0 
shapefile_limpiado-606(1)(1)(1)(1)(1)(2) J-63 J-64 0.998645112233074 50 0.001524 0 
shapefile_limpiado-522(1)(1)(1)(1)(1)(1)(1)(1)(1) J-633 J-70 27.0131271143767 50 0.001524 0 
shapefile_limpiado-522(1)(1)(1)(1)(1)(1)(1)(1)(2) J-70 J-69 1.00002531694127 50 0.001524 0 
shapefile_limpiado-876(1)(1)(2)(1) J-505 J-1255 137.493605706245 100 0.001524 0 
P-16 J-337 J-1255 13.9731518389352 100 0.0015240000000061 0 
shapefile_limpiado-876(1)(1)(2)(2)(2) J-1298 J-1005 95.9674114392663 100 0.001524 0 
P-62 J-1298 J-1299 141.54213944088 100 0.0015240000000061 0 
P-63 J-1299 J-1300 134.010476184622 100 0.0015240000000061 0 
shapefile_limpiado-516(2)(2) J-1303 J-1127 70.4581859494284 75 1.524 0 
shapefile_limpiado-526(2) J-1304 J-692 173.146674556583 100 0.001524 0 
P-70 J-596 J-1303 27.28245616296 75 1.5240000000061 0 
P-68(1) J-94 J-1359 2.47460112530991 75 1.5240000000061 0 
shapefile_limpiado-1006(1) J-772 J-1329 15.2047143033867 100 0.001524 0 
shapefile_limpiado-1006(2) J-1329 J-743 392.830161214745 100 0.001524 0 
shapefile_limpiado-562(1) J-505 5123-A 1.16877586158071 50 0.001524 0 
shapefile_limpiado-562(2) 5123-B J-459 15.2979016744967 50 0.001524 0 
P-93 J-1255 J-1334 41.1165022215474 100 0.0015240000000061 0 
P-94 J-1334 J-1335 179.863827036224 100 0.0015240000000061 0 
P-95 J-1335 J-1336 75.4594874858156 100 0.0015240000000061 0 
P-96 J-1336 J-1337 213.992341936583 100 0.0015240000000061 0 
P-97 J-1337 J-1338 61.9624460266256 100 0.0015240000000061 0 
P-98 J-1338 J-1339 93.6289415074152 100 0.0015240000000061 0 
P-69(1) J-54 J-1340 0.953879066045651 100 0.0015240000000061 0 
P-69(2) J-1340 J-1304 38.8004346861608 100 0.0015240000000061 0 
P-99 J-1339 J-1340 4.36914373145968 100 0.0015240000000061 0 
P-100 J-449 J-1341 4.27381204508061 75 1.5240000000061 0 
P-101 J-1341 J-105 0.554344978170361 75 1.5240000000061 0 
P-102 J-47 J-1342 0.854507265580603 100 0.0015240000000061 0 
P-103 J-1342 J-104 0.926901479086629 100 0.0015240000000061 0 
shapefile_limpiado-515(2)(1) J-94 J-55 0.0286904240064911 75 1.524 0 
shapefile_limpiado-515(2)(2) J-55 J-281 4.68483687297868 75 1.524 0 
shapefile_limpiado-517(2)(1)(1)(1)(1)(1)(1)(2)(1) J-55 J-94 0.0286904240064911 100 0.001524 0 
shapefile_limpiado-517(2)(1)(1)(1)(1)(1)(1)(2)(2)(1) J-94 J-55 0.0286904240064911 100 0.001524 0 
shapefile_limpiado-517(2)(1)(1)(1)(1)(1)(1)(2)(2)(2) J-55 J-54 2.85479557742053 100 0.001524 0 
shapefile_limpiado-517(2)(1)(1)(1)(1)(1)(1)(1)(2)(2) J-94 J-55 0.0286904240064911 100 0.001524 0 
shapefile_limpiado-517(2)(1)(1)(1)(1)(1)(1)(1)(2)(1)(2) J-55 J-94 0.0286904240064911 100 0.001524 0 
shapefile_limpiado-514(2) J-94 J-55 0.0286904240064911 100 0.001524 0 
shapefile_limpiado-514(1)(2) J-55 J-94 0.0286904240064911 100 0.001524 0 
shapefile_limpiado-517(2)(1)(1)(1)(1)(1)(1)(1)(2)(1)(1)(2) J-94 J-55 0.0286904240064911 100 0.001524 0 
shapefile_limpiado-517(2)(1)(1)(1)(1)(1)(1)(1)(2)(1)(1)(1)(1) J-54 J-55 2.85479557742053 100 0.001524 0 
shapefile_limpiado-517(2)(1)(1)(1)(1)(1)(1)(1)(2)(1)(1)(1)(2) J-55 J-94 0.0286904240064911 100 0.001524 0 
shapefile_limpiado-514(1)(1)(2) J-94 J-55 0.0286904240064911 100 0.001524 0 
shapefile_limpiado-514(1)(1)(1)(1) J-54 J-55 2.85479557742053 100 0.001524 0 
shapefile_limpiado-514(1)(1)(1)(2) J-55 J-94 0.0286904240064911 100 0.001524 0 
shapefile_limpiado-518(2)(2)(2)(2)(2)(2)(1)(1) J-55 J-94 0.0286904240064911 100 0.001524 0 
shapefile_limpiado-518(2)(2)(2)(2)(2)(2)(1)(2)(1) J-94 J-55 0.0286904240064911 100 0.001524 0 
shapefile_limpiado-518(2)(2)(2)(2)(2)(2)(1)(2)(2) J-55 J-54 2.85479557742053 100 0.001524 0 
shapefile_limpiado-517(2)(1)(1)(2)(1) J-55 J-94 0.0286904240064911 100 0.001524 0 
shapefile_limpiado-517(2)(1)(1)(2)(2) J-94 J-54 2.86814835303544 100 0.001524 0 
P-90(1) J-1329 J-1358 1.71025794158385 100 0.0015240000000061 0 
P-90(2) J-1358 J-1330 122.864465689623 100 0.0015240000000061 0 
P-109 J-1298 J-1334 3.37984830927515 100 0.0015240000000061 0 
shapefile_limpiado-679(2)(1)(1)(1) J-571 J-1360 158.585707851103 62 1.524 0 

[COORDINATES]
J-47 489775.607068082 1106406.31113268  
J-54 489702.202850616 1106172.94316088  
J-55 489699.412083707 1106173.54439116  
J-63 490417.669785679 1106382.76744009  
J-64 490417.40452214 1106381.80466944  
J-69 489753.907132672 1106165.68941862  
J-70 489754.870440393 1106165.95791232  
J-94 489699.39378036 1106173.52229754  
J-104 489774.790043003 1106407.55285252  
J-105 489774.87194243 1106409.16434708  
J-120 490234.39760933 1106682.62481203  
J-121 490233.193058495 1106684.21678268  
J-161 489847.536535112 1106378.92570926  
J-162 489848.105517448 1106381.61340342  
J-171 490402.53521658 1106550.78583031  
J-172 490405.719993565 1106550.3136906  
J-263 489767.997679698 1106416.37395238  
J-264 489762.706656763 1106416.25892763  
J-281 489701.777267356 1106177.58834997  
J-337 490182.231183238 1106009.26711066  
J-338 490189.515965414 1106012.88611627  
J-366 490321.496552126 1105971.88600952  
J-367 490320.392208612 1105980.75078498  
J-368 491751 1106647  
J-406 491753.6307 1106636.5739  
J-448 489787.343136697 1106401.81901726  
J-449 489774.628406448 1106404.66212624  
J-459 490315.182252574 1105959.65710499  
J-473 491240.380544082 1105488.92733556  
J-474 491255.005972939 1105490.16531833  
J-505 490306.309799638 1105945.78518581  
J-508 490336.767975479 1106262.15220433  
J-509 490342.055489401 1106278.13775704  
J-510 489666.27586713 1106470.23677308  
J-511 489651.394655497 1106478.65074166  
J-513 490074.315500299 1106371.87297083  
J-514 490091.468173546 1106373.46763851  
J-527 490301.362931695 1106079.56992561  
J-528 490299.880139549 1106097.96151099  
J-560 490246.001714298 1106314.60167272  
J-561 490227.091918526 1106307.07947521  
J-570 490164.50480896 1105801.23685475  
J-571 490170.373520235 1105781.1459799  
J-596 489705.034771284 1106185.13531069  
J-597 489728.076127466 1106182.8474941  
J-599 489789.424273405 1106405.90480133  
J-604 491315.035752925 1105721.62753452  
J-605 491290.358486649 1105722.49155513  
J-629 490312.686191961 1106341.03765244  
J-630 490305.000575817 1106315.43207749  
J-633 489747.136496692 1106191.84024512  
J-635 490409.517662112 1106577.45222055  
J-643 489753.274776658 1106194.73633347  
J-652 490449.620628715 1106433.47387604  
J-653 490426.809786999 1106415.94177653  
J-655 489664.998958579 1106469.44688918  
J-656 489637.949566212 1106479.85881315  
J-686 491208.683349303 1105297.77177436  
J-687 491191.298403196 1105324.86452278  
J-691 490167.473316741 1105834.4794794  
J-692 489773.904844333 1106372.6010253  
J-694 490182.379684242 1106484.31392066  
J-695 490207.079511076 1106506.86154913  
J-698 490210.757316337 1105844.7746939  
J-699 490213.460133987 1105878.782348  
J-710 489727.91728495 1106434.81550679  
J-711 489709.299223928 1106405.52047598  
J-739 491238.689610585 1105525.77117315  
J-742 489601.932735739 1106490.75627607  
J-743 491072.163090645 1105736.66303859  
J-744 491034.666449981 1105732.69273452  
J-745 491252.994513467 1105728.68320138  
J-764 490130.615772692 1106378.93122934  
J-772 491044.089017452 1106143.70802659  
J-773 491047.6416 1106181.1705  
J-774 491042.944552437 1105598.1840223  
J-775 491046.527844791 1105557.9017209  
J-778 489826.355512787 1106389.03432229  
J-789 490307.914970419 1106020.79185782  
J-817 490070.509031863 1106391.71993589  
J-818 490079.099946576 1106346.92709572  
J-828 490494.600756177 1106458.83756836  
J-829 490504.369352972 1106413.1006461  
J-835 490353.671586602 1106315.47547802  
J-855 490290.443406109 1106268.84242893  
J-857 491262.614825959 1105379.81098784  
J-858 491265.280863435 1105330.31466461  
J-876 490419.811512417 1106382.767458  
J-877 490372.159304866 1106363.704718  
J-878 489729.720548712 1106433.82289902  
J-901 491263.52570722 1105317.26494508  
J-902 491208.237397645 1105311.81856153  
J-911 490164.015050436 1106039.92697044  
J-912 490217.049049834 1106059.36865164  
J-915 490173.976174085 1105890.79703623  
J-919 489725.524346069 1106437.9432413  
J-928 490104.858579944 1106213.12683687  
J-929 490163.316939565 1106227.17385485  
J-958 490146.08989249 1106076.00893542  
J-959 490207.08854788 1106098.09000395  
J-964 491112.214718347 1105557.58911507  
J-981 490112.913082851 1106162.4817659  
J-982 490179.973662145 1106179.70329364  
J-984 489584.382642859 1106497.68389486  
J-987 489636.403875823 1106480.32644123  
J-988 489638.377198561 1106410.44080111  
J-1005 490122.063295358 1106104.94709652  
J-1006 490192.295510188 1106124.88574733  
J-1008 490320.390517452 1105825.51222659  
J-1009 490369.5684 1105880.6701  
J-1030 490092.273367044 1106273.37061517  
J-1031 490168.567904593 1106285.05100687  
J-1035 490266.489051368 1106557.44191715  
J-1039 490313.206535522 1106187.34952541  
J-1046 491121.074326399 1105478.82877417  
J-1087 490137.766307737 1106092.76357043  
J-1091 490505.261188216 1106413.87862804  
J-1094 490083.107019001 1106323.47083539  
J-1095 490173.739094551 1106336.82082675  
J-1105 491387.528807209 1105368.07508427  
J-1112 490502.099101845 1106576.0347717  
J-1113 490406.454367806 1106555.56169363  
J-1117 490392.385365849 1106678.12960778  
J-1121 490131.57319903 1106576.78766582  
J-1122 489853.566464108 1106218.13522752  
J-1127 489732.751226098 1106278.86260263  
J-1145 490392.368955264 1106668.28622707  
J-1146 490402.041314504 1106548.08041108  
J-1150 490338.710680066 1106268.02551307  
J-1151 490215.367460878 1106270.11321542  
J-1156 490103.7589 1106220.0414  
J-1174 491122.227607665 1105319.77631843  
J-1190 491319.098034565 1105722.19315675  
J-1191 491351.006968399 1105556.66673739  
J-1195 491487.666554717 1105745.66584938  
J-1199 490387.093950271 1106428.57776911  
J-1219 490789.119664524 1105668.47444278  
J-1222 490129.624621774 1106571.47014621  
J-1226 490804.713299147 1105684.0275794  
J-1227 490500.668757479 1105635.95415411  
J-1255 490178.541410972 1105995.78992427  
J-1298 490137.158739083 1106010.18673874  
J-1299 489995.631401712 1106012.23369116  
J-1300 489978.413614505 1106145.13348624  
J-1303 489712.566657648 1106211.3574979  
J-1304 489713.039936579 1106211.19185028  
J-1329 491044.317201358 1106128.50502461  
J-1330 491168.742616726 1106134.55815293  
J-1334 490139.105064503 1106007.42355363  
J-1335 489960.249515782 1105988.40543154  
J-1336 489886.687192507 1106005.21967687  
J-1337 489673.356455008 1106022.0339222  
J-1338 489677.490271319 1106083.85832094  
J-1339 489706.70036569 1106172.81420369  
J-1340 489702.458740988 1106173.86207621  
J-1341 489775.345042298 1106408.8754269  
J-1342 489775.632023045 1106407.16527548  
J-1358 491046.027457913 1106128.50284726  
J-1359 489698.170083474 1106171.37143338  
J-1360 490032.107312248 1105703.9918182  
R-11 491743.887501318 1106656.96530982  
5123-A 490306.946050103 1105946.76560529  
5123-B 490306.946050103 1105946.76560529  

[VERTICES]
shapefile_limpiado-543 490300.280380828 1106088.50942002
shapefile_limpiado-502 491240.187707051 1105490.46469011
shapefile_limpiado-1005 491042.590217452 1106182.39392659
shapefile_limpiado-537 490104.858579944 1106213.12683687
shapefile_limpiado-540 490112.913082851 1106162.4817659
shapefile_limpiado-539 490122.063295358 1106104.94709652
shapefile_limpiado-544 490322.844567624 1106220.05845424
shapefile_limpiado-544 490335.197529289 1106257.40415183
shapefile_limpiado-600 490411.461700839 1106594.74194859
shapefile_limpiado-600 490407.290461362 1106617.76794116
shapefile_limpiado-600 490399.329700112 1106651.98331474
shapefile_limpiado-499 491194.863059388 1105736.8184822
shapefile_limpiado-499 491166.975268334 1105742.27507052
shapefile_limpiado-499 491113.661897249 1105741.05683108
shapefile_limpiado-599 490511.099629437 1106573.66224558
shapefile_limpiado-599 490512.774275355 1106568.85535336
shapefile_limpiado-599 490508.468231977 1106516.6356221
shapefile_limpiado-599 490394.300308518 1106444.28898964
shapefile_limpiado-599 490390.51658148 1106428.16769133
shapefile_limpiado-461 490756.665995986 1105674.69725406
shapefile_limpiado-461 490694.799867776 1105661.48418223
shapefile_limpiado-461 490589.887030636 1105645.93675551
shapefile_limpiado-461 490534.630312435 1105638.16682327
shapefile_limpiado-461 490506.758429183 1105635.51588353
shapefile_limpiado-877 490443.043517452 1105929.03842659
shapefile_limpiado-877 490494.766017453 1106011.58322659
shapefile_limpiado-877 490529.341817452 1106050.02172659
shapefile_limpiado-877 490556.821217452 1106066.40712659
shapefile_limpiado-877 490569.820217453 1106066.10572659
shapefile_limpiado-877 490582.522917452 1106062.52582659
shapefile_limpiado-877 490591.975417453 1106057.45662659
shapefile_limpiado-877 490629.486917453 1106024.66192659
shapefile_limpiado-877 490638.052817452 1106018.69882659
shapefile_limpiado-877 490669.663217452 1106015.11412659
shapefile_limpiado-877 490722.253617452 1106027.61852659
shapefile_limpiado-877 490798.920417452 1106053.68612659
shapefile_limpiado-877 490843.579017453 1106077.27472659
shapefile_limpiado-877 490880.331517452 1106113.11712659
shapefile_limpiado-877 490904.561017453 1106124.94272659
shapefile_limpiado-877 491006.937817452 1106138.10152659
shapefile_limpiado-1000 491053.3296 1106192.8354
shapefile_limpiado-1000 491060.2001 1106215.9624
shapefile_limpiado-1000 491068.9586 1106245.444
shapefile_limpiado-1000 491079.3715 1106270.0854
shapefile_limpiado-1000 491087.8351 1106288.9383
shapefile_limpiado-1000 491118.8374 1106320.4307
shapefile_limpiado-1000 491141.497 1106341.8861
shapefile_limpiado-1000 491162.5704 1106353.0502
shapefile_limpiado-1000 491199.6086 1106369.2161
shapefile_limpiado-1000 491305.8148 1106406.3021
shapefile_limpiado-1000 491305.8193 1106406.3035
shapefile_limpiado-1000 491344.2665 1106419.7288
shapefile_limpiado-1000 491398.6209 1106438.9432
shapefile_limpiado-1000 491411.0254 1106446.0192
shapefile_limpiado-1000 491456.8275 1106474.9897
shapefile_limpiado-1000 491483.3182 1106489.7427
shapefile_limpiado-1000 491519.8185 1106503.2503
shapefile_limpiado-1000 491582.9614 1106522.6555
shapefile_limpiado-1000 491645.9527 1106552.4699
shapefile_limpiado-1000 491717.4153 1106589.7399
shapefile_limpiado-1000 491759.9232 1106611.6358
shapefile_limpiado-1002(2) 491743.9029 1106656.984
shapefile_limpiado-1002(2) 491746.016 1106657.158
shapefile_limpiado-1002(2) 491749.7597 1106649.5281
shapefile_limpiado-549(1) 490396.077508855 1106518.40193919
shapefile_limpiado-549(1) 490392.015740815 1106492.88023443
shapefile_limpiado-549(1) 490390.17055619 1106438.6269379
shapefile_limpiado-876(2) 490104.858579944 1106213.12683687
shapefile_limpiado-460(2) 490804.713299147 1105684.0275794
shapefile_limpiado-460(2) 490822.549227577 1105687.54514004
shapefile_limpiado-460(2) 490841.420250427 1105692.85598066
shapefile_limpiado-460(2) 490851.357296871 1105695.59840509
shapefile_limpiado-460(2) 490859.52193974 1105696.63766342
shapefile_limpiado-460(2) 490873.122219256 1105697.56841137
shapefile_limpiado-460(2) 490882.629415525 1105697.28696305
shapefile_limpiado-460(2) 490889.624484508 1105698.28278855
shapefile_limpiado-460(2) 490905.847407127 1105705.05099518
shapefile_limpiado-460(2) 490918.789587413 1105709.32712876
shapefile_limpiado-460(2) 490930.689364958 1105712.90885356
shapefile_limpiado-460(2) 490948.526908155 1105717.08220685
shapefile_limpiado-460(2) 490983.238319449 1105724.14422661
shapefile_limpiado-679(1) 490315.954121874 1105819.0908716
shapefile_limpiado-679(1) 490310.8440652 1105812.95880359
shapefile_limpiado-679(1) 490301.755663369 1105818.02573158
shapefile_limpiado-679(1) 490273.209972091 1105810.89922553
shapefile_limpiado-679(1) 490235.290516176 1105799.94048513
shapefile_limpiado-679(1) 490181.181822373 1105781.22628924
shapefile_limpiado-601(1) 490405.600640445 1106611.00848856
shapefile_limpiado-601(1) 490407.171179944 1106599.91516328
shapefile_limpiado-601(1) 490408.470358092 1106585.65954768
shapefile_limpiado-601(1) 490407.876909014 1106580.04617971
shapefile_limpiado-527(1) 489745.061009785 1106308.421361
shapefile_limpiado-527(1) 489756.319914611 1106329.71400234
shapefile_limpiado-527(1) 489766.211471353 1106347.71676607
shapefile_limpiado-527(1) 489773.014018776 1106375.78870295
shapefile_limpiado-584(1) 489827.104894005 1106385.73152967
shapefile_limpiado-584(2) 489853.398456266 1106376.64666684
shapefile_limpiado-584(2) 489873.566126138 1106374.54741955
shapefile_limpiado-584(2) 489902.352125334 1106374.59697162
shapefile_limpiado-584(2) 490001.648153562 1106388.67162222
shapefile_limpiado-584(2) 490050.65867525 1106399.9663767
shapefile_limpiado-584(2) 490072.512023368 1106402.20195657
shapefile_limpiado-584(2) 490091.169803404 1106425.16233963
shapefile_limpiado-584(2) 490098.751896278 1106448.41663588
shapefile_limpiado-584(2) 490103.187522107 1106479.00837684
shapefile_limpiado-584(2) 490108.854200201 1106514.89022573
shapefile_limpiado-584(2) 490115.682066651 1106538.69531515
shapefile_limpiado-595(1) 490132.432109765 1106575.9922911
shapefile_limpiado-595(1) 490137.371240467 1106590.8553612
shapefile_limpiado-595(1) 490144.057855278 1106607.82295794
shapefile_limpiado-595(1) 490153.748055875 1106619.36298221
shapefile_limpiado-595(1) 490187.459355209 1106646.86839637
shapefile_limpiado-595(1) 490222.348782493 1106673.22213201
shapefile_limpiado-595(2) 490264.15993011 1106705.85086728
shapefile_limpiado-595(2) 490295.508785716 1106730.13384914
shapefile_limpiado-595(2) 490327.577671032 1106753.31234221
shapefile_limpiado-595(2) 490365.815000112 1106777.99767664