[TITLE]
Scenario: New Optimized Run - 1 - 1 
Date: 21/2/2025 08:52:38 

[PATTERNS]
LasCruces 0.695 0.687948497 0.679665418 0.67 0.676635502 0.723849078 0.837361668 0.981187796 
LasCruces 1.141469232 1.309966806 1.441137564 1.45 1.363789377 1.232875643 1.126313122 1.05026929 
LasCruces 1.006833364 0.984809174 0.968332271 0.958589112 0.9376767 0.903781798 0.857658073 0.799959616 
LasCruces 0.695 

[JUNCTIONS]
J-47 1247.99108886719 0 
J-54 1228.71569824219 0 
J-55 1228.71899414063 0 
J-63 1238.16174316406 0 
J-64 1238.14379882813 0 
J-69 1228.43090820313 0 
J-70 1228.42590332031 0 
J-94 1228.71948242188 0 
J-104 1248.01525878906 0 
J-105 1248.06274414063 0 
J-120 1247.48168945313 0 
J-121 1247.45068359375 0 
J-161 1242.59118652344 0 
J-162 1242.61181640625 0 
J-171 1241.74877929688 0 
J-172 1241.93237304688 0 
J-263 1248.19714355469 0 
J-264 1248.193359375 0 
J-281 1228.63256835938 0 
J-337 1219.31188964844 0 
J-338 1218.95935058594 0 
J-366 1209.97387695313 0 
J-367 1210.63842773438 0 
J-368 1301 0 
J-406 1300.5 0 
J-448 1247.51049804688 0 
J-449 1247.95068359375 0 
J-459 1209.77893066406 0 
J-473 1224.71301269531 0 
J-474 1224.12536621094 0 
J-505 1210.48815917969 0 
J-508 1232.41088867188 0 
J-509 1233.29748535156 0 
J-510 1247.06774902344 0 
J-511 1247.31713867188 0 
J-513 1231.00964355469 0 
J-514 1230.60595703125 0 
J-527 1216.10913085938 0 
J-528 1218.32202148438 0 
J-560 1228.27880859375 0 
J-561 1223.98120117188 0 
J-570 1212 0 
J-571 1212.95495605469 0 
J-596 1228.49768066406 0 
J-597 1228.36389160156 0 
J-599 1247.4375 0 
J-604 1232 0 
J-605 1232.79968261719 0 
J-629 1238.17260742188 0 
J-630 1236.99157714844 0 
J-633 1228.10327148438 0 
J-635 1241.72485351563 0 
J-643 1228.01245117188 0 
J-652 1242.08239746094 0 
J-653 1239.86572265625 0 
J-655 1247.04931640625 0 
J-656 1247.58666992188 0 
J-686 1219.36267089844 0 
J-687 1219.93725585938 0 
J-691 1212 0 
J-692 1247.38916015625 0 
J-694 1240.23767089844 0 
J-695 1240.96142578125 0 
J-698 1212 0 
J-699 1213.45629882813 0 
J-710 1247.46044921875 0 
J-711 1247.47302246094 0 
J-739 1225.25329589844 0 
J-742 1248.57604980469 0 
J-743 1228.36950683594 0 
J-744 1226.8408203125 0 
J-745 1233.45007324219 0 
J-764 1229.56323242188 0 
J-772 1242.17077636719 0 
J-773 1243.33374023438 0 
J-774 1225.06921386719 0 
J-775 1223.69885253906 0 
J-778 1244.57080078125 0 
J-789 1212 0 
J-817 1228.84741210938 0 
J-818 1231.70263671875 0 
J-828 1241.59606933594 0 
J-829 1240.02697753906 0 
J-835 1236.46374511719 0 
J-855 1233.34973144531 0 
J-857 1221.81469726563 0 
J-858 1220.34326171875 0 
J-876 1238.259765625 0 
J-877 1238.31872558594 0 
J-878 1247.5087890625 0 
J-901 1219.89184570313 0 
J-902 1219.56982421875 0 
J-911 1219.1787109375 0 
J-912 1217.83068847656 0 
J-915 1214.58520507813 0 
J-919 1247.3779296875 0 
J-928 1228.73547363281 0 
J-929 1226.177734375 0 
J-958 1219.65942382813 0 
J-959 1218.90979003906 0 
J-964 1223.20153808594 0 
J-981 1224.21154785156 0 
J-982 1224.30676269531 0 
J-984 1249 0 
J-987 1247.62451171875 0 
J-988 1246.72302246094 0 
J-1005 1220.95324707031 0 
J-1006 1219.78356933594 0 
J-1008 1207.6953125 0 
J-1009 1205.24328613281 0 
J-1030 1231.18994140625 0 
J-1031 1223.35083007813 0 
J-1035 1240.47937011719 0 
J-1039 1228.37878417969 0 
J-1046 1227.18420410156 0 
J-1087 1219.814453125 0 
J-1091 1240.04772949219 0 
J-1094 1231.71923828125 0 
J-1095 1222.30432128906 0 
J-1105 1223.32690429688 0 
J-1112 1246.6669921875 0 
J-1113 1241.7275390625 0 
J-1117 1250.482421875 0 
J-1121 1239.45861816406 0 
J-1122 1226.40454101563 0 
J-1127 1243.6875 0 
J-1145 1249.77026367188 0 
J-1146 1241.87609863281 0 
J-1150 1232.70849609375 0 
J-1151 1226.029296875 0 
J-1156 1228.97094726563 0 
J-1174 1219.99108886719 0 
J-1190 1232 0 
J-1191 1231.74047851563 0 
J-1195 1239.51879882813 0 
J-1199 1240.65295410156 0 
J-1219 1224.53833007813 0 
J-1222 1238.83776855469 0 
J-1226 1225.41259765625 0 
J-1227 1212.0693359375 0 
J-1255 1219.56762695313 0 
J-1298 1217.93188476563 0 
J-1299 1223.28637695313 0 
J-1300 1227.4052734375 0 
J-1303 1228.07214355469 0 
J-1304 1228.07092285156 0 
J-1329 1242.63940429688 0 
J-1330 1245.05285644531 0 
J-1334 1217.99353027344 0 
J-1335 1221.87109375 0 
J-1336 1223.00256347656 0 
J-1337 1224.46643066406 0 
J-1338 1228.8662109375 0 
J-1339 1228.67272949219 0 
J-1340 1228.69921875 0 
J-1341 1248.05419921875 0 
J-1342 1248.00390625 0 
J-1358 1242.67253803045 0 
J-1359 1228.75866699219 0 
J-1360 1206.02975243153 0 
5123-A 1210.43005371094 0 
5123-B 1210.43005371094 0 

[RESERVOIRS]
R-11 1303 

[DEMANDS]

